data/inputs/nesta_case300_ieee.m
%%%%%%%%%%%%%%%%%%%%%%%%%%%%%%%%%%%%%%%%%%%%%%%%%%%%%%%%%%%%%%%%%%%%%%%%%%%
%%%%                                                                  %%%%%
%%%%      NICTA Energy System Test Case Archive (NESTA) - v0.7.0      %%%%%
%%%%              Optimal Power Flow - Typical Operation              %%%%%
%%%%                         05 - June - 2017                         %%%%%
%%%%                                                                  %%%%%
%%%%%%%%%%%%%%%%%%%%%%%%%%%%%%%%%%%%%%%%%%%%%%%%%%%%%%%%%%%%%%%%%%%%%%%%%%%
%   Power flow data for IEEE 300 bus test case.
%   This data was converted from IEEE Common Data Format
%   (ieee300cdf.txt) on 20-Sep-2004 by cdf2matp, rev. 1.11
%
%   Converted from IEEE CDF file from:
%       http://www.ee.washington.edu/research/pstca/
%
%   CDF Header:
%   13/05/91 CYME INTERNATIONAL    100.0 1991 S IEEE 300-BUS TEST SYSTEM
%
function mpc = nesta_case300_ieee
mpc.version = '2';
mpc.baseMVA = 100.0;

%% bus data
%	bus_i	type	Pd	Qd	Gs	Bs	area	Vm	Va	baseKV	zone	Vmax	Vmin
mpc.bus = [
	1	 1	 90.0	 49.0	 0.0	 0.0	 1	    1.01481	   -0.39207	 115.0	 1	    1.06000	    0.94000;
	2	 1	 56.0	 15.0	 0.0	 0.0	 1	    1.04144	   -2.31217	 115.0	 1	    1.06000	    0.94000;
	3	 1	 20.0	 0.0	 0.0	 0.0	 1	    1.00932	   -6.02973	 230.0	 1	    1.06000	    0.94000;
	4	 1	 0.0	 0.0	 0.0	 0.0	 1	    1.04411	   -6.82201	 345.0	 1	    1.06000	    0.94000;
	5	 1	 353.0	 130.0	 0.0	 0.0	 1	    1.00647	   -3.03541	 115.0	 1	    1.06000	    0.94000;
	6	 1	 120.0	 41.0	 0.0	 0.0	 1	    1.03716	   -3.47267	 115.0	 1	    1.06000	    0.94000;
	7	 1	 0.0	 0.0	 0.0	 0.0	 1	    1.00338	   -6.05256	 230.0	 1	    1.06000	    0.94000;
	8	 2	 63.0	 14.0	 0.0	 0.0	 1	    1.01897	   -7.63010	 115.0	 1	    1.06000	    0.94000;
	9	 1	 96.0	 43.0	 0.0	 0.0	 1	    0.99503	   -7.82611	 115.0	 1	    1.06000	    0.94000;
	10	 2	 153.0	 33.0	 0.0	 0.0	 1	    1.02637	  -11.83422	 230.0	 1	    1.06000	    0.94000;
	11	 1	 83.0	 21.0	 0.0	 0.0	 1	    1.00502	  -10.95404	 115.0	 1	    1.06000	    0.94000;
	12	 1	 0.0	 0.0	 0.0	 0.0	 1	    1.00668	   -7.89461	 230.0	 1	    1.06000	    0.94000;
	13	 1	 58.0	 10.0	 0.0	 0.0	 1	    1.00307	  -14.63624	 115.0	 1	    1.06000	    0.94000;
	14	 1	 160.0	 60.0	 0.0	 0.0	 1	    1.00236	  -12.38396	 115.0	 1	    1.06000	    0.94000;
	15	 1	 126.7	 23.0	 0.0	 0.0	 1	    1.03136	  -13.76294	 115.0	 1	    1.06000	    0.94000;
	16	 1	 0.0	 0.0	 0.0	 0.0	 1	    1.04669	   -9.85277	 345.0	 1	    1.06000	    0.94000;
	17	 1	 561.0	 220.0	 0.0	 0.0	 1	    1.05221	  -15.07490	 115.0	 1	    1.06000	    0.94000;
	19	 1	 0.0	 0.0	 0.0	 0.0	 1	    0.99872	  -11.69065	 230.0	 1	    1.06000	    0.94000;
	20	 2	 605.0	 120.0	 0.0	 0.0	 1	    1.01405	  -17.15296	 115.0	 1	    1.06000	    0.94000;
	21	 1	 77.0	 1.0	 0.0	 0.0	 1	    0.98806	  -12.98330	 230.0	 1	    1.06000	    0.94000;
	22	 1	 81.0	 23.0	 0.0	 0.0	 1	    1.00963	  -17.58548	 115.0	 1	    1.06000	    0.94000;
	23	 1	 21.0	 7.0	 0.0	 0.0	 1	    1.06000	  -14.71226	 115.0	 1	    1.06000	    0.94000;
	24	 1	 0.0	 0.0	 0.0	 0.0	 1	    1.02471	  -15.08067	 230.0	 1	    1.06000	    0.94000;
	25	 1	 45.0	 12.0	 0.0	 0.0	 1	    1.03536	  -16.82217	 115.0	 1	    1.06000	    0.94000;
	26	 1	 28.0	 9.0	 0.0	 0.0	 1	    1.01321	  -19.26850	 115.0	 1	    1.06000	    0.94000;
	27	 1	 69.0	 13.0	 0.0	 0.0	 1	    0.98950	  -21.23654	 115.0	 1	    1.06000	    0.94000;
	33	 1	 55.0	 6.0	 0.0	 0.0	 1	    1.03382	  -14.48350	 115.0	 1	    1.06000	    0.94000;
	34	 1	 0.0	 0.0	 0.0	 0.0	 1	    1.05332	  -11.36791	 345.0	 1	    1.06000	    0.94000;
	35	 1	 0.0	 0.0	 0.0	 0.0	 1	    1.00588	  -22.25083	 115.0	 1	    1.06000	    0.94000;
	36	 1	 0.0	 0.0	 0.0	 0.0	 1	    1.03009	  -20.36914	 230.0	 1	    1.06000	    0.94000;
	37	 1	 85.0	 32.0	 0.0	 0.0	 1	    1.02874	  -13.47651	 115.0	 1	    1.06000	    0.94000;
	38	 1	 155.0	 18.0	 0.0	 0.0	 1	    1.02959	  -14.95114	 115.0	 1	    1.06000	    0.94000;
	39	 1	 0.0	 0.0	 0.0	 0.0	 1	    1.06000	   -9.25329	 345.0	 1	    1.06000	    0.94000;
	40	 1	 46.0	 -21.0	 0.0	 0.0	 1	    1.03203	  -14.82627	 115.0	 1	    1.06000	    0.94000;
	41	 1	 86.0	 0.0	 0.0	 0.0	 1	    1.03655	  -13.08510	 115.0	 1	    1.06000	    0.94000;
	42	 1	 0.0	 0.0	 0.0	 0.0	 1	    1.05673	  -10.99795	 345.0	 1	    1.06000	    0.94000;
	43	 1	 39.0	 9.0	 0.0	 0.0	 1	    1.01632	  -18.47402	 115.0	 1	    1.06000	    0.94000;
	44	 1	 195.0	 29.0	 0.0	 0.0	 1	    1.02902	  -18.69049	 115.0	 1	    1.06000	    0.94000;
	45	 1	 0.0	 0.0	 0.0	 0.0	 1	    1.04567	  -16.15531	 230.0	 1	    1.06000	    0.94000;
	46	 1	 0.0	 0.0	 0.0	 0.0	 1	    1.05456	  -13.88130	 345.0	 1	    1.06000	    0.94000;
	47	 1	 58.0	 11.8	 0.0	 0.0	 1	    1.00526	  -22.18572	 115.0	 1	    1.06000	    0.94000;
	48	 1	 41.0	 19.0	 0.0	 0.0	 1	    1.01758	  -15.51201	 115.0	 1	    1.06000	    0.94000;
	49	 1	 92.0	 26.0	 0.0	 0.0	 1	    1.04315	   -3.52351	 115.0	 1	    1.06000	    0.94000;
	51	 1	 -5.0	 5.0	 0.0	 0.0	 1	    1.02540	  -10.44926	 115.0	 1	    1.06000	    0.94000;
	52	 1	 61.0	 28.0	 0.0	 0.0	 1	    1.00027	  -15.76925	 115.0	 1	    1.06000	    0.94000;
	53	 1	 69.0	 3.0	 0.0	 0.0	 1	    1.01170	  -19.57310	 115.0	 1	    1.06000	    0.94000;
	54	 1	 10.0	 1.0	 0.0	 0.0	 1	    1.02049	  -18.83364	 115.0	 1	    1.06000	    0.94000;
	55	 1	 22.0	 10.0	 0.0	 0.0	 1	    1.02103	  -17.30629	 115.0	 1	    1.06000	    0.94000;
	57	 1	 98.0	 20.0	 0.0	 0.0	 1	    1.04453	  -15.30056	 115.0	 1	    1.06000	    0.94000;
	58	 1	 14.0	 1.0	 0.0	 0.0	 1	    1.02616	  -11.54386	 115.0	 1	    1.06000	    0.94000;
	59	 1	 218.0	 106.0	 0.0	 0.0	 1	    1.01880	  -10.26207	 115.0	 1	    1.06000	    0.94000;
	60	 1	 0.0	 0.0	 0.0	 0.0	 1	    1.05435	  -12.38754	 230.0	 1	    1.06000	    0.94000;
	61	 1	 227.0	 110.0	 0.0	 0.0	 1	    1.03179	   -8.26579	 115.0	 1	    1.06000	    0.94000;
	62	 1	 0.0	 0.0	 0.0	 0.0	 1	    1.04695	   -6.20913	 230.0	 1	    1.06000	    0.94000;
	63	 2	 70.0	 30.0	 0.0	 0.0	 1	    0.99647	  -22.23460	 115.0	 1	    1.06000	    0.94000;
	64	 1	 0.0	 0.0	 0.0	 0.0	 1	    0.98406	  -17.76206	 230.0	 1	    1.06000	    0.94000;
	69	 1	 0.0	 0.0	 0.0	 0.0	 1	    0.99293	  -24.65547	 115.0	 1	    1.06000	    0.94000;
	70	 1	 56.0	 20.0	 0.0	 0.0	 1	    0.98944	  -23.92878	 115.0	 1	    1.06000	    0.94000;
	71	 1	 116.0	 38.0	 0.0	 0.0	 1	    1.01559	  -19.02585	 115.0	 1	    1.06000	    0.94000;
	72	 1	 57.0	 19.0	 0.0	 0.0	 1	    1.00074	  -22.39478	 115.0	 1	    1.06000	    0.94000;
	73	 1	 224.0	 71.0	 0.0	 0.0	 1	    1.00572	  -22.50148	 115.0	 1	    1.06000	    0.94000;
	74	 1	 0.0	 0.0	 0.0	 0.0	 1	    1.02661	  -20.30139	 230.0	 1	    1.06000	    0.94000;
	76	 2	 208.0	 107.0	 0.0	 0.0	 1	    0.99386	  -23.05455	 115.0	 1	    1.06000	    0.94000;
	77	 1	 74.0	 28.0	 0.0	 0.0	 1	    1.01535	  -21.52018	 115.0	 1	    1.06000	    0.94000;
	78	 1	 0.0	 0.0	 0.0	 0.0	 1	    1.02201	  -20.64335	 115.0	 1	    1.06000	    0.94000;
	79	 1	 48.0	 14.0	 0.0	 0.0	 1	    1.01270	  -21.93210	 115.0	 1	    1.06000	    0.94000;
	80	 1	 28.0	 7.0	 0.0	 0.0	 1	    1.01722	  -23.11744	 115.0	 1	    1.06000	    0.94000;
	81	 1	 0.0	 0.0	 0.0	 0.0	 1	    1.05459	  -17.92590	 345.0	 1	    1.06000	    0.94000;
	84	 2	 37.0	 13.0	 0.0	 0.0	 1	    1.06000	  -13.27367	 115.0	 1	    1.06000	    0.94000;
	85	 1	 0.0	 0.0	 0.0	 0.0	 1	    1.03741	  -11.87973	 230.0	 1	    1.06000	    0.94000;
	86	 1	 0.0	 0.0	 0.0	 0.0	 1	    1.03725	  -11.09403	 230.0	 1	    1.06000	    0.94000;
	87	 1	 0.0	 0.0	 0.0	 0.0	 1	    1.02770	  -12.60862	 230.0	 1	    1.06000	    0.94000;
	88	 1	 0.0	 0.0	 0.0	 0.0	 1	    1.04071	  -19.39750	 230.0	 1	    1.06000	    0.94000;
	89	 1	 44.2	 0.0	 0.0	 0.0	 1	    1.03734	  -15.19379	 115.0	 1	    1.06000	    0.94000;
	90	 1	 66.0	 0.0	 0.0	 0.0	 1	    1.03369	  -13.57210	 115.0	 1	    1.06000	    0.94000;
	91	 2	 17.4	 0.0	 0.0	 0.0	 1	    1.06000	  -13.78888	 115.0	 1	    1.06000	    0.94000;
	92	 2	 15.8	 0.0	 0.0	 0.0	 1	    1.06000	   -7.44423	 115.0	 1	    1.06000	    0.94000;
	94	 1	 60.3	 0.0	 0.0	 0.0	 1	    1.01995	  -13.76211	 115.0	 1	    1.06000	    0.94000;
	97	 1	 39.9	 0.0	 0.0	 0.0	 1	    1.04350	  -11.37697	 115.0	 1	    1.06000	    0.94000;
	98	 2	 66.7	 0.0	 0.0	 0.0	 1	    1.06000	   -3.63059	 115.0	 1	    1.06000	    0.94000;
	99	 1	 83.5	 0.0	 0.0	 0.0	 1	    1.03577	  -12.45946	 115.0	 1	    1.06000	    0.94000;
	100	 1	 0.0	 0.0	 0.0	 0.0	 1	    1.04553	   -8.80186	 115.0	 1	    1.06000	    0.94000;
	102	 1	 77.8	 0.0	 0.0	 0.0	 1	    1.03942	  -10.09836	 115.0	 1	    1.06000	    0.94000;
	103	 1	 32.0	 0.0	 0.0	 0.0	 1	    1.04609	  -11.43890	 115.0	 1	    1.06000	    0.94000;
	104	 1	 8.6	 0.0	 0.0	 0.0	 1	    1.03964	  -11.13714	 115.0	 1	    1.06000	    0.94000;
	105	 1	 49.6	 0.0	 0.0	 0.0	 1	    1.04157	  -12.14138	 115.0	 1	    1.06000	    0.94000;
	107	 1	 4.6	 0.0	 0.0	 0.0	 1	    1.03166	  -13.85612	 115.0	 1	    1.06000	    0.94000;
	108	 2	 112.1	 0.0	 0.0	 0.0	 1	    1.03921	  -12.02436	 115.0	 1	    1.06000	    0.94000;
	109	 1	 30.7	 0.0	 0.0	 0.0	 1	    1.01484	  -21.37122	 115.0	 1	    1.06000	    0.94000;
	110	 1	 63.0	 0.0	 0.0	 0.0	 1	    1.01384	  -19.55202	 115.0	 1	    1.06000	    0.94000;
	112	 1	 19.6	 0.0	 0.0	 0.0	 1	    1.01106	  -25.42127	 115.0	 1	    1.06000	    0.94000;
	113	 1	 26.2	 0.0	 0.0	 0.0	 1	    1.00183	  -23.20257	 115.0	 1	    1.06000	    0.94000;
	114	 1	 18.2	 0.0	 0.0	 0.0	 1	    1.01293	  -25.55402	 115.0	 1	    1.06000	    0.94000;
	115	 1	 0.0	 0.0	 0.0	 0.0	 1	    0.98242	  -26.79431	 115.0	 2	    1.06000	    0.94000;
	116	 1	 0.0	 0.0	 0.0	 0.0	 1	    1.05062	  -23.05259	 115.0	 2	    1.06000	    0.94000;
	117	 1	 0.0	 0.0	 0.0	 325.0	 1	    0.96212	  -19.01609	 115.0	 2	    1.06000	    0.94000;
	118	 1	 14.1	 650.0	 0.0	 0.0	 1	    0.95706	  -18.60601	 115.0	 2	    1.06000	    0.94000;
	119	 2	 0.0	 0.0	 0.0	 0.0	 1	    1.06000	  -11.77104	 115.0	 2	    1.06000	    0.94000;
	120	 1	 777.0	 215.0	 0.0	 55.0	 1	    0.98576	  -23.61643	 115.0	 2	    1.06000	    0.94000;
	121	 1	 535.0	 55.0	 0.0	 0.0	 1	    1.01309	  -26.89353	 115.0	 2	    1.06000	    0.94000;
	122	 1	 229.1	 11.8	 0.0	 0.0	 1	    0.99509	  -26.85563	 115.0	 2	    1.06000	    0.94000;
	123	 1	 78.0	 1.4	 0.0	 0.0	 1	    1.02372	  -27.76254	 115.0	 2	    1.06000	    0.94000;
	124	 2	 276.4	 59.3	 0.0	 0.0	 1	    1.05160	  -23.12912	 115.0	 2	    1.06000	    0.94000;
	125	 2	 514.8	 82.7	 0.0	 0.0	 1	    1.02561	  -28.13807	 115.0	 2	    1.06000	    0.94000;
	126	 1	 57.9	 5.1	 0.0	 0.0	 1	    1.01113	  -22.57111	 115.0	 2	    1.06000	    0.94000;
	127	 1	 380.8	 37.0	 0.0	 0.0	 1	    1.00735	  -18.04469	 230.0	 2	    1.06000	    0.94000;
	128	 1	 0.0	 0.0	 0.0	 0.0	 1	    1.00876	  -12.41742	 230.0	 2	    1.06000	    0.94000;
	129	 1	 0.0	 0.0	 0.0	 0.0	 1	    1.00917	  -12.30679	 230.0	 2	    1.06000	    0.94000;
	130	 1	 0.0	 0.0	 0.0	 0.0	 1	    1.03003	   -4.96556	 230.0	 2	    1.06000	    0.94000;
	131	 1	 0.0	 0.0	 0.0	 0.0	 1	    0.99704	   -5.71202	 230.0	 2	    1.06000	    0.94000;
	132	 1	 0.0	 0.0	 0.0	 0.0	 1	    1.01600	   -7.41188	 230.0	 2	    1.06000	    0.94000;
	133	 1	 0.0	 0.0	 0.0	 0.0	 1	    1.00522	  -12.41465	 230.0	 2	    1.06000	    0.94000;
	134	 1	 0.0	 0.0	 0.0	 0.0	 1	    1.02870	  -13.73469	 230.0	 2	    1.06000	    0.94000;
	135	 1	 169.2	 41.6	 0.0	 0.0	 1	    1.03089	  -14.56647	 230.0	 2	    1.06000	    0.94000;
	136	 1	 55.2	 18.2	 0.0	 0.0	 1	    1.06000	  -10.80793	 230.0	 2	    1.06000	    0.94000;
	137	 1	 273.6	 99.8	 0.0	 0.0	 1	    1.04643	   -6.54899	 230.0	 2	    1.06000	    0.94000;
	138	 2	 1019.2	 135.2	 0.0	 0.0	 1	    1.06000	  -11.19100	 230.0	 2	    1.06000	    0.94000;
	139	 1	 595.0	 83.3	 0.0	 0.0	 1	    1.00892	   -4.13661	 115.0	 2	    1.06000	    0.94000;
	140	 1	 387.7	 114.7	 0.0	 0.0	 1	    1.04309	   -6.92421	 230.0	 2	    1.06000	    0.94000;
	141	 2	 145.0	 58.0	 0.0	 0.0	 1	    1.04778	   -2.27873	 230.0	 2	    1.06000	    0.94000;
	142	 1	 56.5	 24.5	 0.0	 0.0	 1	    1.01517	   -3.98188	 230.0	 2	    1.06000	    0.94000;
	143	 2	 89.5	 35.5	 0.0	 0.0	 1	    1.04534	    4.64720	 230.0	 2	    1.06000	    0.94000;
	144	 1	 0.0	 0.0	 0.0	 0.0	 1	    1.04478	   -5.36867	 230.0	 2	    1.06000	    0.94000;
	145	 1	 24.0	 14.0	 0.0	 0.0	 1	    1.00885	   -3.00797	 230.0	 2	    1.06000	    0.94000;
	146	 2	 0.0	 0.0	 0.0	 0.0	 1	    1.06000	   -0.40987	 230.0	 2	    1.06000	    0.94000;
	147	 2	 0.0	 0.0	 0.0	 0.0	 1	    1.06000	   -1.24171	 230.0	 2	    1.06000	    0.94000;
	148	 1	 63.0	 25.0	 0.0	 0.0	 1	    1.06000	    0.14661	 230.0	 2	    1.06000	    0.94000;
	149	 2	 0.0	 0.0	 0.0	 0.0	 1	    1.06000	    1.59657	 230.0	 2	    1.06000	    0.94000;
	150	 1	 0.0	 0.0	 0.0	 0.0	 1	    0.99969	   -5.62534	 230.0	 2	    1.06000	    0.94000;
	151	 1	 0.0	 0.0	 0.0	 0.0	 1	    1.01593	   -6.37388	 230.0	 2	    1.06000	    0.94000;
	152	 2	 17.0	 9.0	 0.0	 0.0	 1	    1.05793	   -9.01136	 230.0	 2	    1.06000	    0.94000;
	153	 2	 0.0	 0.0	 0.0	 0.0	 1	    1.05875	   -3.74355	 230.0	 2	    1.06000	    0.94000;
	154	 1	 70.0	 5.0	 0.0	 34.5	 1	    0.99069	  -14.93893	 115.0	 2	    1.06000	    0.94000;
	155	 1	 200.0	 50.0	 0.0	 0.0	 1	    1.04779	   -6.18824	 230.0	 2	    1.06000	    0.94000;
	156	 2	 75.0	 50.0	 0.0	 0.0	 1	    0.99183	   -7.75048	 115.0	 2	    1.06000	    0.94000;
	157	 1	 123.5	 -24.3	 0.0	 0.0	 1	    1.00673	  -24.17680	 230.0	 2	    1.06000	    0.94000;
	158	 1	 0.0	 0.0	 0.0	 0.0	 1	    1.02078	  -22.67366	 230.0	 2	    1.06000	    0.94000;
	159	 1	 33.0	 16.5	 0.0	 0.0	 1	    1.01086	  -22.48367	 230.0	 2	    1.06000	    0.94000;
	160	 1	 0.0	 0.0	 0.0	 0.0	 1	    1.02593	  -22.94377	 230.0	 2	    1.06000	    0.94000;
	161	 1	 35.0	 15.0	 0.0	 0.0	 1	    1.05677	   -4.93676	 230.0	 2	    1.06000	    0.94000;
	162	 1	 85.0	 24.0	 0.0	 0.0	 1	    1.02459	    2.92718	 230.0	 2	    1.06000	    0.94000;
	163	 1	 0.0	 0.4	 0.0	 0.0	 1	    1.06000	   -5.24823	 230.0	 2	    1.06000	    0.94000;
	164	 1	 0.0	 0.0	 0.0	 -212.0	 1	    1.01475	   -3.08908	 230.0	 2	    1.06000	    0.94000;
	165	 1	 0.0	 0.0	 0.0	 0.0	 1	    1.02464	    8.61701	 230.0	 2	    1.06000	    0.94000;
	166	 1	 0.0	 0.0	 0.0	 -103.0	 1	    1.01509	   11.50254	 230.0	 2	    1.06000	    0.94000;
	167	 1	 299.9	 95.7	 0.0	 0.0	 1	    0.97985	  -15.12865	 230.0	 2	    1.06000	    0.94000;
	168	 1	 0.0	 0.0	 0.0	 0.0	 1	    1.00875	  -12.43426	 230.0	 2	    1.06000	    0.94000;
	169	 1	 0.0	 0.0	 0.0	 0.0	 1	    0.99376	  -14.43283	 230.0	 2	    1.06000	    0.94000;
	170	 2	 481.8	 205.0	 0.0	 0.0	 1	    0.94000	  -10.35584	 115.0	 2	    1.06000	    0.94000;
	171	 2	 763.6	 291.1	 0.0	 0.0	 1	    0.98619	  -16.86028	 115.0	 2	    1.06000	    0.94000;
	172	 1	 26.5	 0.0	 0.0	 0.0	 1	    1.02257	   -7.87712	 115.0	 2	    1.06000	    0.94000;
	173	 1	 163.5	 43.0	 0.0	 53.0	 1	    0.98902	  -15.30324	 115.0	 2	    1.06000	    0.94000;
	174	 1	 0.0	 0.0	 0.0	 0.0	 1	    1.06000	   -4.92582	 115.0	 2	    1.06000	    0.94000;
	175	 1	 176.0	 83.0	 0.0	 0.0	 1	    0.97611	   -9.03767	 115.0	 2	    1.06000	    0.94000;
	176	 2	 5.0	 4.0	 0.0	 0.0	 1	    1.06000	   -1.02044	 115.0	 2	    1.06000	    0.94000;
	177	 2	 28.0	 12.0	 0.0	 0.0	 1	    1.00726	   -5.28551	 115.0	 2	    1.06000	    0.94000;
	178	 1	 427.4	 173.6	 0.0	 0.0	 1	    0.94000	   -9.71567	 115.0	 2	    1.06000	    0.94000;
	179	 1	 74.0	 29.0	 0.0	 45.0	 1	    0.96966	  -11.40511	 115.0	 2	    1.06000	    0.94000;
	180	 1	 69.5	 49.3	 0.0	 0.0	 1	    0.97995	   -6.05249	 115.0	 2	    1.06000	    0.94000;
	181	 1	 73.4	 0.0	 0.0	 0.0	 1	    1.05075	   -6.19766	 230.0	 2	    1.06000	    0.94000;
	182	 1	 240.7	 89.0	 0.0	 0.0	 1	    1.04483	   -6.54171	 230.0	 2	    1.06000	    0.94000;
	183	 1	 40.0	 4.0	 0.0	 0.0	 1	    0.98767	   -6.86131	 115.0	 2	    1.06000	    0.94000;
	184	 1	 136.8	 16.6	 0.0	 0.0	 1	    1.04164	   -7.83909	 230.0	 2	    1.06000	    0.94000;
	185	 2	 0.0	 0.0	 0.0	 0.0	 1	    1.06000	   -2.41082	 230.0	 2	    1.06000	    0.94000;
	186	 2	 59.8	 24.3	 0.0	 0.0	 1	    1.06000	   -2.43275	 230.0	 2	    1.06000	    0.94000;
	187	 2	 59.8	 24.3	 0.0	 0.0	 1	    1.06000	   -2.93738	 230.0	 2	    1.06000	    0.94000;
	188	 1	 182.6	 43.6	 0.0	 0.0	 1	    1.05135	   -5.54802	 230.0	 2	    1.06000	    0.94000;
	189	 1	 7.0	 2.0	 0.0	 0.0	 1	    1.02863	  -28.81792	 66.0	 3	    1.06000	    0.94000;
	190	 2	 0.0	 0.0	 0.0	 -150.0	 1	    1.05007	  -18.57532	 345.0	 3	    1.06000	    0.94000;
	191	 2	 489.0	 53.0	 0.0	 0.0	 1	    1.00563	  -14.56287	 230.0	 3	    1.06000	    0.94000;
	192	 1	 800.0	 72.0	 0.0	 0.0	 1	    0.94000	  -31.37397	 230.0	 3	    1.06000	    0.94000;
	193	 1	 0.0	 0.0	 0.0	 0.0	 1	    1.01844	  -27.76042	 66.0	 3	    1.06000	    0.94000;
	194	 1	 0.0	 0.0	 0.0	 0.0	 1	    1.06000	  -17.33062	 345.0	 3	    1.06000	    0.94000;
	195	 1	 0.0	 0.0	 0.0	 0.0	 1	    1.05005	  -19.26281	 345.0	 3	    1.06000	    0.94000;
	196	 1	 10.0	 3.0	 0.0	 0.0	 1	    0.99981	  -27.84618	 115.0	 3	    1.06000	    0.94000;
	197	 1	 43.0	 14.0	 0.0	 0.0	 1	    1.01754	  -26.35324	 115.0	 3	    1.06000	    0.94000;
	198	 2	 64.0	 21.0	 0.0	 0.0	 1	    1.04626	  -26.27832	 115.0	 3	    1.06000	    0.94000;
	199	 1	 35.0	 12.0	 0.0	 0.0	 1	    0.98996	  -27.99827	 115.0	 3	    1.06000	    0.94000;
	200	 1	 27.0	 12.0	 0.0	 0.0	 1	    1.00064	  -26.46477	 115.0	 3	    1.06000	    0.94000;
	201	 1	 41.0	 14.0	 0.0	 0.0	 1	    1.00561	  -26.95126	 66.0	 1	    1.06000	    0.94000;
	202	 1	 38.0	 13.0	 0.0	 0.0	 1	    1.02452	  -26.46771	 66.0	 3	    1.06000	    0.94000;
	203	 1	 42.0	 14.0	 0.0	 0.0	 1	    1.03357	  -25.79235	 115.0	 3	    1.06000	    0.94000;
	204	 1	 72.0	 24.0	 0.0	 0.0	 1	    1.00412	  -26.68513	 66.0	 3	    1.06000	    0.94000;
	205	 1	 0.0	 -5.0	 0.0	 0.0	 1	    1.01497	  -27.26038	 66.0	 3	    1.06000	    0.94000;
	206	 1	 12.0	 2.0	 0.0	 0.0	 1	    1.03914	  -26.71322	 66.0	 3	    1.06000	    0.94000;
	207	 1	 -21.0	 -14.2	 0.0	 0.0	 1	    1.06000	  -25.76547	 66.0	 1	    1.06000	    0.94000;
	208	 1	 7.0	 2.0	 0.0	 0.0	 1	    1.02297	  -28.34813	 66.0	 3	    1.06000	    0.94000;
	209	 1	 38.0	 13.0	 0.0	 0.0	 1	    1.02807	  -29.31236	 66.0	 3	    1.06000	    0.94000;
	210	 1	 0.0	 0.0	 0.0	 0.0	 1	    1.01122	  -27.33400	 115.0	 3	    1.06000	    0.94000;
	211	 1	 96.0	 7.0	 0.0	 0.0	 1	    1.02874	  -23.91465	 115.0	 3	    1.06000	    0.94000;
	212	 1	 0.0	 0.0	 0.0	 0.0	 1	    1.03775	  -21.81146	 138.0	 3	    1.06000	    0.94000;
	213	 2	 0.0	 0.0	 0.0	 0.0	 1	    1.06000	    0.16762	 16.5	 3	    1.06000	    0.94000;
	214	 1	 22.0	 16.0	 0.0	 0.0	 1	    1.03063	   -8.52192	 138.0	 3	    1.06000	    0.94000;
	215	 1	 47.0	 26.0	 0.0	 0.0	 1	    1.01706	  -13.35826	 138.0	 3	    1.06000	    0.94000;
	216	 1	 176.0	 105.0	 0.0	 0.0	 1	    0.99883	  -16.64234	 138.0	 3	    1.06000	    0.94000;
	217	 1	 100.0	 75.0	 0.0	 0.0	 1	    1.03640	  -18.52264	 138.0	 3	    1.06000	    0.94000;
	218	 1	 131.0	 96.0	 0.0	 0.0	 1	    1.02353	  -19.13996	 138.0	 3	    1.06000	    0.94000;
	219	 1	 0.0	 0.0	 0.0	 0.0	 1	    1.05742	  -18.44884	 345.0	 3	    1.06000	    0.94000;
	220	 2	 285.0	 100.0	 0.0	 0.0	 1	    1.04530	  -17.46234	 138.0	 3	    1.06000	    0.94000;
	221	 2	 171.0	 70.0	 0.0	 0.0	 1	    1.04859	  -20.35568	 138.0	 3	    1.06000	    0.94000;
...
];

%% generator data
%	bus	Pg	Qg	Qmax	Qmin	Vg	mBase	status	Pmax	Pmin	Pc1	Pc2	Qc1min	Qc1max	Qc2min	Qc2max	ramp_agc	ramp_10	ramp_30	ramp_q	apf
mpc.gen = [
	8	 0.0	 10.0	 10.0	 -10.0	 1.01897	 100.0	 1	 0	 0.0	 0.0	 0.0	 0.0	 0.0	 0.0	 0.0	 0.0	 0.0	 0.0	 0.0	 0.0; % SYNC
	10	 0.0	 20.0	 20.0	 -20.0	 1.02637	 100.0	 1	 0	 0.0	 0.0	 0.0	 0.0	 0.0	 0.0	 0.0	 0.0	 0.0	 0.0	 0.0	 0.0; % SYNC
	20	 0.0	 20.0	 20.0	 -20.0	 1.01405	 100.0	 1	 0	 0.0	 0.0	 0.0	 0.0	 0.0	 0.0	 0.0	 0.0	 0.0	 0.0	 0.0	 0.0; % SYNC
	63	 0.0	 25.0	 25.0	 -25.0	 0.99647	 100.0	 1	 0	 0.0	 0.0	 0.0	 0.0	 0.0	 0.0	 0.0	 0.0	 0.0	 0.0	 0.0	 0.0; % SYNC
	76	 0.0	 35.0	 35.0	 12.0	 0.99386	 100.0	 1	 0	 0.0	 0.0	 0.0	 0.0	 0.0	 0.0	 0.0	 0.0	 0.0	 0.0	 0.0	 0.0; % SYNC
	84	 423.0	 149.711	 212.0	 -212.0	 1.06	 100.0	 1	 423	 0.0	 0.0	 0.0	 0.0	 0.0	 0.0	 0.0	 0.0	 0.0	 0.0	 0.0	 0.0; % NG
	91	 0.0	 57.973	 91.0	 -11.0	 1.06	 100.0	 1	 182	 0.0	 0.0	 0.0	 0.0	 0.0	 0.0	 0.0	 0.0	 0.0	 0.0	 0.0	 0.0; % NG
	92	 238.151	 15.863	 153.0	 -153.0	 1.06	 100.0	 1	 313	 0.0	 0.0	 0.0	 0.0	 0.0	 0.0	 0.0	 0.0	 0.0	 0.0	 0.0	 0.0; % NG
	98	 315.0	 -30.0	 56.0	 -30.0	 1.06	 100.0	 1	 315	 0.0	 0.0	 0.0	 0.0	 0.0	 0.0	 0.0	 0.0	 0.0	 0.0	 0.0	 0.0; % COW
	108	 327.0	 -9.581	 77.0	 -24.0	 1.03921	 100.0	 1	 327	 0.0	 0.0	 0.0	 0.0	 0.0	 0.0	 0.0	 0.0	 0.0	 0.0	 0.0	 0.0; % COW
	119	 1660.006	 907.896	 985.0	 -500.0	 1.06	 100.0	 1	 1969	 0.0	 0.0	 0.0	 0.0	 0.0	 0.0	 0.0	 0.0	 0.0	 0.0	 0.0	 0.0; % COW
	124	 360.344	 120.0	 120.0	 -60.0	 1.0516	 100.0	 1	 364	 0.0	 0.0	 0.0	 0.0	 0.0	 0.0	 0.0	 0.0	 0.0	 0.0	 0.0	 0.0; % NG
	125	 0.0	 200.0	 200.0	 -25.0	 1.02561	 100.0	 1	 0	 0.0	 0.0	 0.0	 0.0	 0.0	 0.0	 0.0	 0.0	 0.0	 0.0	 0.0	 0.0; % SYNC
	138	 0.0	 296.992	 350.0	 -125.0	 1.06	 100.0	 1	 0	 0.0	 0.0	 0.0	 0.0	 0.0	 0.0	 0.0	 0.0	 0.0	 0.0	 0.0	 0.0; % SYNC
	141	 322.0	 48.866	 75.0	 -50.0	 1.04778	 100.0	 1	 322	 0.0	 0.0	 0.0	 0.0	 0.0	 0.0	 0.0	 0.0	 0.0	 0.0	 0.0	 0.0; % COW
	143	 1090.0	 120.835	 300.0	 -100.0	 1.04534	 100.0	 1	 1090	 0.0	 0.0	 0.0	 0.0	 0.0	 0.0	 0.0	 0.0	 0.0	 0.0	 0.0	 0.0; % COW
	146	 184.0	 28.056	 35.0	 -15.0	 1.06	 100.0	 1	 184	 0.0	 0.0	 0.0	 0.0	 0.0	 0.0	 0.0	 0.0	 0.0	 0.0	 0.0	 0.0; % NG
	147	 0.0	 -27.307	 100.0	 -50.0	 1.06	 100.0	 1	 237	 0.0	 0.0	 0.0	 0.0	 0.0	 0.0	 0.0	 0.0	 0.0	 0.0	 0.0	 0.0; % NG
	149	 0.0	 36.599	 50.0	 -25.0	 1.06	 100.0	 1	 179	 0.0	 0.0	 0.0	 0.0	 0.0	 0.0	 0.0	 0.0	 0.0	 0.0	 0.0	 0.0; % NG
	152	 0.0	 -50.0	 175.0	 -50.0	 1.05793	 100.0	 1	 389	 0.0	 0.0	 0.0	 0.0	 0.0	 0.0	 0.0	 0.0	 0.0	 0.0	 0.0	 0.0; % NG
	153	 268.508	 -37.644	 90.0	 -50.0	 1.05875	 100.0	 1	 330	 0.0	 0.0	 0.0	 0.0	 0.0	 0.0	 0.0	 0.0	 0.0	 0.0	 0.0	 0.0; % NG
	156	 0.0	 14.955	 15.0	 -10.0	 0.99183	 100.0	 1	 0	 0.0	 0.0	 0.0	 0.0	 0.0	 0.0	 0.0	 0.0	 0.0	 0.0	 0.0	 0.0; % SYNC
	170	 201.582	 90.0	 90.0	 -40.0	 0.94	 100.0	 1	 542	 0.0	 0.0	 0.0	 0.0	 0.0	 0.0	 0.0	 0.0	 0.0	 0.0	 0.0	 0.0; % NG
	171	 0.0	 150.0	 150.0	 -50.0	 0.98619	 100.0	 1	 0	 0.0	 0.0	 0.0	 0.0	 0.0	 0.0	 0.0	 0.0	 0.0	 0.0	 0.0	 0.0; % SYNC
	176	 208.811	 52.27	 90.0	 -45.0	 1.06	 100.0	 1	 400	 0.0	 0.0	 0.0	 0.0	 0.0	 0.0	 0.0	 0.0	 0.0	 0.0	 0.0	 0.0; % NG
	177	 24.707	 35.0	 35.0	 -15.0	 1.00726	 100.0	 1	 270	 0.0	 0.0	 0.0	 0.0	 0.0	 0.0	 0.0	 0.0	 0.0	 0.0	 0.0	 0.0; % NG
	185	 432.0	 46.333	 80.0	 -50.0	 1.06	 100.0	 1	 432	 0.0	 0.0	 0.0	 0.0	 0.0	 0.0	 0.0	 0.0	 0.0	 0.0	 0.0	 0.0; % NG
	186	 1301.0	 168.347	 400.0	 -100.0	 1.06	 100.0	 1	 1301	 0.0	 0.0	 0.0	 0.0	 0.0	 0.0	 0.0	 0.0	 0.0	 0.0	 0.0	 0.0; % COW
	187	 1424.0	 185.802	 400.0	 -100.0	 1.06	 100.0	 1	 1424	 0.0	 0.0	 0.0	 0.0	 0.0	 0.0	 0.0	 0.0	 0.0	 0.0	 0.0	 0.0; % COW
	190	 0.0	 -150.655	 276.0	 -276.0	 1.05007	 100.0	 1	 551	 0.0	 0.0	 0.0	 0.0	 0.0	 0.0	 0.0	 0.0	 0.0	 0.0	 0.0	 0.0; % PEL
	191	 1493.26	 378.713	 1000.0	 -1000.0	 1.00563	 100.0	 1	 2087	 0.0	 0.0	 0.0	 0.0	 0.0	 0.0	 0.0	 0.0	 0.0	 0.0	 0.0	 0.0; % NUC
	198	 96.729	 188.224	 229.0	 -229.0	 1.04626	 100.0	 1	 457	 0.0	 0.0	 0.0	 0.0	 0.0	 0.0	 0.0	 0.0	 0.0	 0.0	 0.0	 0.0; % NG
	213	 440.0	 85.977	 150.0	 -150.0	 1.06	 100.0	 1	 440	 0.0	 0.0	 0.0	 0.0	 0.0	 0.0	 0.0	 0.0	 0.0	 0.0	 0.0	 0.0; % COW
	220	 313.0	 60.0	 60.0	 -60.0	 1.0453	 100.0	 1	 313	 0.0	 0.0	 0.0	 0.0	 0.0	 0.0	 0.0	 0.0	 0.0	 0.0	 0.0	 0.0; % NG
	221	 566.0	 283.0	 283.0	 -283.0	 1.04859	 100.0	 1	 566	 0.0	 0.0	 0.0	 0.0	 0.0	 0.0	 0.0	 0.0	 0.0	 0.0	 0.0	 0.0; % COW
	222	 292.0	 72.562	 146.0	 -146.0	 1.00289	 100.0	 1	 292	 0.0	 0.0	 0.0	 0.0	 0.0	 0.0	 0.0	 0.0	 0.0	 0.0	 0.0	 0.0; % NG
	227	 400.0	 200.0	 200.0	 -200.0	 0.97072	 100.0	 1	 400	 0.0	 0.0	 0.0	 0.0	 0.0	 0.0	 0.0	 0.0	 0.0	 0.0	 0.0	 0.0; % NG
	230	 0.0	 39.443	 229.0	 -229.0	 1.05041	 100.0	 1	 457	 0.0	 0.0	 0.0	 0.0	 0.0	 0.0	 0.0	 0.0	 0.0	 0.0	 0.0	 0.0; % NG
	233	 1005.923	 272.942	 500.0	 -500.0	 1.04079	 100.0	 1	 1259	 0.0	 0.0	 0.0	 0.0	 0.0	 0.0	 0.0	 0.0	 0.0	 0.0	 0.0	 0.0; % COW
	236	 603.0	 300.0	 300.0	 -300.0	 1.03164	 100.0	 1	 603	 0.0	 0.0	 0.0	 0.0	 0.0	 0.0	 0.0	 0.0	 0.0	 0.0	 0.0	 0.0; % COW
	238	 281.0	 141.0	 141.0	 -141.0	 1.0484	 100.0	 1	 281	 0.0	 0.0	 0.0	 0.0	 0.0	 0.0	 0.0	 0.0	 0.0	 0.0	 0.0	 0.0; % NG
	239	 656.0	 223.538	 328.0	 -328.0	 1.06	 100.0	 1	 656	 0.0	 0.0	 0.0	 0.0	 0.0	 0.0	 0.0	 0.0	 0.0	 0.0	 0.0	 0.0; % NG
	241	 594.0	 -233.835	 297.0	 -297.0	 1.01779	 100.0	 1	 594	 0.0	 0.0	 0.0	 0.0	 0.0	 0.0	 0.0	 0.0	 0.0	 0.0	 0.0	 0.0; % COW
	242	 293.0	 100.0	 100.0	 40.0	 1.03671	 100.0	 1	 293	 0.0	 0.0	 0.0	 0.0	 0.0	 0.0	 0.0	 0.0	 0.0	 0.0	 0.0	 0.0; % NG
	243	 76.376	 49.0	 49.0	 40.0	 1.04557	 100.0	 1	 98	 0.0	 0.0	 0.0	 0.0	 0.0	 0.0	 0.0	 0.0	 0.0	 0.0	 0.0	 0.0; % NG
	7001	 1084.0	 210.0	 210.0	 -210.0	 1.0336	 100.0	 1	 1084	 0.0	 0.0	 0.0	 0.0	 0.0	 0.0	 0.0	 0.0	 0.0	 0.0	 0.0	 0.0; % COW
	7002	 814.0	 122.048	 280.0	 -280.0	 1.06	 100.0	 1	 814	 0.0	 0.0	 0.0	 0.0	 0.0	 0.0	 0.0	 0.0	 0.0	 0.0	 0.0	 0.0; % COW
	7003	 56.738	 420.0	 420.0	 -420.0	 1.05141	 100.0	 1	 1798	 0.0	 0.0	 0.0	 0.0	 0.0	 0.0	 0.0	 0.0	 0.0	 0.0	 0.0	 0.0; % COW
	7011	 0.0	 100.0	 100.0	 -100.0	 1.02381	 100.0	 1	 338	 0.0	 0.0	 0.0	 0.0	 0.0	 0.0	 0.0	 0.0	 0.0	 0.0	 0.0	 0.0; % NG
	7012	 382.0	 191.0	 191.0	 -191.0	 1.05674	 100.0	 1	 382	 0.0	 0.0	 0.0	 0.0	 0.0	 0.0	 0.0	 0.0	 0.0	 0.0	 0.0	 0.0; % COW
	7017	 461.0	 231.0	 231.0	 0.0	 1.02214	 100.0	 1	 461	 0.0	 0.0	 0.0	 0.0	 0.0	 0.0	 0.0	 0.0	 0.0	 0.0	 0.0	 0.0; % NG
	7023	 202.0	 4.178	 101.0	 0.0	 1.06	 100.0	 1	 202	 0.0	 0.0	 0.0	 0.0	 0.0	 0.0	 0.0	 0.0	 0.0	 0.0	 0.0	 0.0; % NG
	7024	 10.722	 129.438	 224.0	 -224.0	 1.06	 100.0	 1	 503	 0.0	 0.0	 0.0	 0.0	 0.0	 0.0	 0.0	 0.0	 0.0	 0.0	 0.0	 0.0; % NG
	7039	 534.0	 69.723	 200.0	 -200.0	 1.03138	 100.0	 1	 534	 0.0	 0.0	 0.0	 0.0	 0.0	 0.0	 0.0	 0.0	 0.0	 0.0	 0.0	 0.0; % COW
	7044	 43.0	 22.0	 22.0	 0.0	 1.00227	 100.0	 1	 43	 0.0	 0.0	 0.0	 0.0	 0.0	 0.0	 0.0	 0.0	 0.0	 0.0	 0.0	 0.0; % NG
	7049	 538.923	 10.0	 10.0	 0.0	 1.04237	 100.0	 1	 1366	 0.0	 0.0	 0.0	 0.0	 0.0	 0.0	 0.0	 0.0	 0.0	 0.0	 0.0	 0.0; % NUC
	7055	 0.0	 25.0	 25.0	 0.0	 1.00509	 100.0	 1	 63	 0.0	 0.0	 0.0	 0.0	 0.0	 0.0	 0.0	 0.0	 0.0	 0.0	 0.0	 0.0; % PEL
	7057	 92.314	 84.0	 84.0	 -84.0	 1.03069	 100.0	 1	 167	 0.0	 0.0	 0.0	 0.0	 0.0	 0.0	 0.0	 0.0	 0.0	 0.0	 0.0	 0.0; % NG
	7061	 451.0	 147.827	 150.0	 -150.0	 1.06	 100.0	 1	 451	 0.0	 0.0	 0.0	 0.0	 0.0	 0.0	 0.0	 0.0	 0.0	 0.0	 0.0	 0.0; % NG
	7062	 230.961	 150.0	 150.0	 0.0	 1.03455	 100.0	 1	 583	 0.0	 0.0	 0.0	 0.0	 0.0	 0.0	 0.0	 0.0	 0.0	 0.0	 0.0	 0.0; % NG
	7071	 308.0	 87.0	 87.0	 0.0	 1.00657	 100.0	 1	 308	 0.0	 0.0	 0.0	 0.0	 0.0	 0.0	 0.0	 0.0	 0.0	 0.0	 0.0	 0.0; % COW
	7130	 1354.0	 329.024	 600.0	 -100.0	 1.06	 100.0	 1	 1354	 0.0	 0.0	 0.0	 0.0	 0.0	 0.0	 0.0	 0.0	 0.0	 0.0	 0.0	 0.0; % NUC
	7139	 946.0	 325.0	 325.0	 -125.0	 1.04935	 100.0	 1	 946	 0.0	 0.0	 0.0	 0.0	 0.0	 0.0	 0.0	 0.0	 0.0	 0.0	 0.0	 0.0; % COW
	7166	 424.468	 58.264	 280.0	 -200.0	 1.02186	 100.0	 1	 559	 0.0	 0.0	 0.0	 0.0	 0.0	 0.0	 0.0	 0.0	 0.0	 0.0	 0.0	 0.0; % COW
	9002	 0.0	 2.0	 2.0	 -2.0	 1.00382	 100.0	 1	 0	 0.0	 0.0	 0.0	 0.0	 0.0	 0.0	 0.0	 0.0	 0.0	 0.0	 0.0	 0.0; % SYNC
	9051	 0.0	 17.35	 17.35	 -17.35	 1.02728	 100.0	 1	 0	 0.0	 0.0	 0.0	 0.0	 0.0	 0.0	 0.0	 0.0	 0.0	 0.0	 0.0	 0.0; % SYNC
	9053	 0.0	 12.83	 12.83	 -12.8	 1.01495	 100.0	 1	 0	 0.0	 0.0	 0.0	 0.0	 0.0	 0.0	 0.0	 0.0	 0.0	 0.0	 0.0	 0.0; % SYNC
	9054	 63.728	 38.0	 38.0	 -38.0	 1.03014	 100.0	 1	 174	 0.0	 0.0	 0.0	 0.0	 0.0	 0.0	 0.0	 0.0	 0.0	 0.0	 0.0	 0.0; % NG
	9055	 16.396	 6.0	 6.0	 -6.0	 1.01725	 100.0	 1	 22	 0.0	 0.0	 0.0	 0.0	 0.0	 0.0	 0.0	 0.0	 0.0	 0.0	 0.0	 0.0; % NG
];

%% generator cost data
%	2	startup	shutdown	n	c(n-1)	...	c0
mpc.gencost = [
	2	 0.0	 0.0	 3	   0.000000	   0.000000	   0.000000; % SYNC
	2	 0.0	 0.0	 3	   0.000000	   0.000000	   0.000000; % SYNC
	2	 0.0	 0.0	 3	   0.000000	   0.000000	   0.000000; % SYNC
	2	 0.0	 0.0	 3	   0.000000	   0.000000	   0.000000; % SYNC
	2	 0.0	 0.0	 3	   0.000000	   0.000000	   0.000000; % SYNC
	2	 0.0	 0.0	 3	   0.000000	   0.862937	   0.000000; % NG
	2	 0.0	 0.0	 3	   0.000000	   1.145219	   0.000000; % NG
	2	 0.0	 0.0	 3	   0.000000	   0.855144	   0.000000; % NG
	2	 0.0	 0.0	 3	   0.000000	   0.623184	   0.000000; % COW
	2	 0.0	 0.0	 3	   0.000000	   0.436942	   0.000000; % COW
	2	 0.0	 0.0	 3	   0.000000	   0.860739	   0.000000; % COW
	2	 0.0	 0.0	 3	   0.000000	   1.165277	   0.000000; % NG
	2	 0.0	 0.0	 3	   0.000000	   0.000000	   0.000000; % SYNC
	2	 0.0	 0.0	 3	   0.000000	   0.000000	   0.000000; % SYNC
	2	 0.0	 0.0	 3	   0.000000	   0.736240	   0.000000; % COW
	2	 0.0	 0.0	 3	   0.000000	   0.518890	   0.000000; % COW
	2	 0.0	 0.0	 3	   0.000000	   0.950470	   0.000000; % NG
	2	 0.0	 0.0	 3	   0.000000	   1.035443	   0.000000; % NG
	2	 0.0	 0.0	 3	   0.000000	   1.000865	   0.000000; % NG
	2	 0.0	 0.0	 3	   0.000000	   1.205069	   0.000000; % NG
	2	 0.0	 0.0	 3	   0.000000	   1.006003	   0.000000; % NG
	2	 0.0	 0.0	 3	   0.000000	   0.000000	   0.000000; % SYNC
	2	 0.0	 0.0	 3	   0.000000	   1.296830	   0.000000; % NG
	2	 0.0	 0.0	 3	   0.000000	   0.000000	   0.000000; % SYNC
	2	 0.0	 0.0	 3	   0.000000	   0.881521	   0.000000; % NG
	2	 0.0	 0.0	 3	   0.000000	   1.077258	   0.000000; % NG
	2	 0.0	 0.0	 3	   0.000000	   0.881766	   0.000000; % NG
	2	 0.0	 0.0	 3	   0.000000	   0.680561	   0.000000; % COW
	2	 0.0	 0.0	 3	   0.000000	   0.525815	   0.000000; % COW
	2	 0.0	 0.0	 3	   0.000000	   6.589820	   0.000000; % PEL
	2	 0.0	 0.0	 3	   0.000000	   0.238746	   0.000000; % NUC
	2	 0.0	 0.0	 3	   0.000000	   1.296577	   0.000000; % NG
	2	 0.0	 0.0	 3	   0.000000	   0.766488	   0.000000; % COW
	2	 0.0	 0.0	 3	   0.000000	   1.189872	   0.000000; % NG
	2	 0.0	 0.0	 3	   0.000000	   0.793755	   0.000000; % COW
	2	 0.0	 0.0	 3	   0.000000	   1.151968	   0.000000; % NG
	2	 0.0	 0.0	 3	   0.000000	   0.967289	   0.000000; % NG
	2	 0.0	 0.0	 3	   0.000000	   1.351678	   0.000000; % NG
	2	 0.0	 0.0	 3	   0.000000	   1.092796	   0.000000; % COW
	2	 0.0	 0.0	 3	   0.000000	   0.717838	   0.000000; % COW
	2	 0.0	 0.0	 3	   0.000000	   0.816196	   0.000000; % NG
	2	 0.0	 0.0	 3	   0.000000	   0.829873	   0.000000; % NG
	2	 0.0	 0.0	 3	   0.000000	   0.965277	   0.000000; % COW
	2	 0.0	 0.0	 3	   0.000000	   1.026426	   0.000000; % NG
	2	 0.0	 0.0	 3	   0.000000	   1.162522	   0.000000; % NG
	2	 0.0	 0.0	 3	   0.000000	   0.464375	   0.000000; % COW
	2	 0.0	 0.0	 3	   0.000000	   0.643629	   0.000000; % COW
	2	 0.0	 0.0	 3	   0.000000	   0.979373	   0.000000; % COW
	2	 0.0	 0.0	 3	   0.000000	   1.101765	   0.000000; % NG
	2	 0.0	 0.0	 3	   0.000000	   0.668355	   0.000000; % COW
	2	 0.0	 0.0	 3	   0.000000	   0.963298	   0.000000; % NG
	2	 0.0	 0.0	 3	   0.000000	   0.910148	   0.000000; % NG
	2	 0.0	 0.0	 3	   0.000000	   1.070991	   0.000000; % NG
	2	 0.0	 0.0	 3	   0.000000	   0.440401	   0.000000; % COW
	2	 0.0	 0.0	 3	   0.000000	   0.698679	   0.000000; % NG
	2	 0.0	 0.0	 3	   0.000000	   0.220280	   0.000000; % NUC
	2	 0.0	 0.0	 3	   0.000000	   6.638181	   0.000000; % PEL
	2	 0.0	 0.0	 3	   0.000000	   1.151176	   0.000000; % NG
	2	 0.0	 0.0	 3	   0.000000	   0.798996	   0.000000; % NG
	2	 0.0	 0.0	 3	   0.000000	   0.940150	   0.000000; % NG
	2	 0.0	 0.0	 3	   0.000000	   1.021886	   0.000000; % COW
	2	 0.0	 0.0	 3	   0.000000	   0.200801	   0.000000; % NUC
	2	 0.0	 0.0	 3	   0.000000	   0.668946	   0.000000; % COW
	2	 0.0	 0.0	 3	   0.000000	   0.977695	   0.000000; % COW
	2	 0.0	 0.0	 3	   0.000000	   0.000000	   0.000000; % SYNC
	2	 0.0	 0.0	 3	   0.000000	   0.000000	   0.000000; % SYNC
	2	 0.0	 0.0	 3	   0.000000	   0.000000	   0.000000; % SYNC
	2	 0.0	 0.0	 3	   0.000000	   1.139101	   0.000000; % NG
	2	 0.0	 0.0	 3	   0.000000	   0.887970	   0.000000; % NG
];

%% branch data
%	fbus	tbus	r	x	b	rateA	rateB	rateC	ratio	angle	status	angmin	angmax
mpc.branch = [
	37	 9001	 6e-05	 0.00046	 0.0	 9900.0	 63230	 75.0	 1.0082	 0.0	 1	 -30.0	 30.0;
	9001	 9005	 0.0008	 0.00348	 0.0	 8215	 8215	 8215	 0.0	 0.0	 1	 -30.0	 30.0;
	9001	 9006	 0.02439	 0.43682	 0.0	 68	 68	 68	 0.9668	 0.0	 1	 -30.0	 30.0;
	9001	 9012	 0.03624	 0.64898	 0.0	 46	 46	 46	 0.9796	 0.0	 1	 -30.0	 30.0;
	9005	 9051	 0.01578	 0.37486	 0.0	 79	 79	 79	 1.0435	 0.0	 1	 -30.0	 30.0;
	9005	 9052	 0.01578	 0.37486	 0.0	 79	 79	 79	 0.9391	 0.0	 1	 -30.0	 30.0;
	9005	 9053	 0.01602	 0.38046	 0.0	 78	 78	 78	 1.0435	 0.0	 1	 -30.0	 30.0;
	9005	 9054	 0.0	 0.152	 0.0	 193	 193	 193	 1.0435	 0.0	 1	 -30.0	 30.0;
	9005	 9055	 0.0	 0.8	 0.0	 37	 37	 37	 1.0435	 0.0	 1	 -30.0	 30.0;
	9006	 9007	 0.05558	 0.24666	 0.0	 117	 117	 117	 0.0	 0.0	 1	 -30.0	 30.0;
	9006	 9003	 0.11118	 0.49332	 0.0	 59	 59	 59	 0.0	 0.0	 1	 -30.0	 30.0;
	9006	 9003	 0.11118	 0.49332	 0.0	 59	 59	 59	 0.0	 0.0	 1	 -30.0	 30.0;
	9012	 9002	 0.07622	 0.43286	 0.0	 67	 67	 67	 0.0	 0.0	 1	 -30.0	 30.0;
	9012	 9002	 0.07622	 0.43286	 0.0	 67	 67	 67	 0.0	 0.0	 1	 -30.0	 30.0;
	9002	 9021	 0.0537	 0.07026	 0.0	 332	 332	 332	 0.0	 0.0	 1	 -30.0	 30.0;
	9021	 9023	 1.1068	 0.95278	 0.0	 21	 21	 21	 0.0	 0.0	 1	 -30.0	 30.0;
	9021	 9022	 0.44364	 2.8152	 0.0	 11	 11	 11	 1.0	 0.0	 1	 -30.0	 30.0;
	9002	 9024	 0.50748	 3.2202	 0.0	 9	 9	 9	 1.0	 0.0	 1	 -30.0	 30.0;
	9023	 9025	 0.66688	 3.944	 0.0	 8	 8	 8	 1.0	 0.0	 1	 -30.0	 30.0;
	9023	 9026	 0.6113	 3.6152	 0.0	 8	 8	 8	 1.0	 0.0	 1	 -30.0	 30.0;
	9007	 9071	 0.4412	 2.9668	 0.0	 10	 10	 10	 1.0	 0.0	 1	 -30.0	 30.0;
	9007	 9072	 0.30792	 2.057	 0.0	 15	 15	 15	 1.0	 0.0	 1	 -30.0	 30.0;
	9007	 9003	 0.0558	 0.24666	 0.0	 116	 116	 116	 0.0	 0.0	 1	 -30.0	 30.0;
	9003	 9031	 0.73633	 4.6724	 0.0	 7	 7	 7	 1.0	 0.0	 1	 -30.0	 30.0;
	9003	 9032	 0.76978	 4.8846	 0.0	 6	 6	 6	 1.0	 0.0	 1	 -30.0	 30.0;
	9003	 9033	 0.75732	 4.8056	 0.0	 7	 7	 7	 1.0	 0.0	 1	 -30.0	 30.0;
	9003	 9044	 0.07378	 0.06352	 0.0	 302	 302	 302	 0.0	 0.0	 1	 -30.0	 30.0;
	9044	 9004	 0.03832	 0.02894	 0.0	 611	 611	 611	 0.0	 0.0	 1	 -30.0	 30.0;
	9004	 9041	 0.36614	 2.456	 0.0	 12	 12	 12	 1.0	 0.0	 1	 -30.0	 30.0;
	9004	 9042	 1.0593	 5.4536	 0.0	 6	 6	 6	 1.0	 0.0	 1	 -30.0	 30.0;
	9004	 9043	 0.1567	 1.6994	 0.0	 18	 18	 18	 1.0	 0.0	 1	 -30.0	 30.0;
	9003	 9034	 0.13006	 1.3912	 0.0	 21	 21	 21	 1.0	 0.0	 1	 -30.0	 30.0;
	9003	 9035	 0.54484	 3.4572	 0.0	 9	 9	 9	 1.0	 0.0	 1	 -30.0	 30.0;
	9003	 9036	 0.15426	 1.6729	 0.0	 18	 18	 18	 1.0	 0.0	 1	 -30.0	 30.0;
	9003	 9037	 0.3849	 2.5712	 0.0	 12	 12	 12	 1.0	 0.0	 1	 -30.0	 30.0;
	9003	 9038	 0.4412	 2.9668	 0.0	 10	 10	 10	 1.0	 0.0	 1	 -30.0	 30.0;
	9012	 9121	 0.23552	 0.99036	 0.0	 29	 29	 29	 0.0	 0.0	 1	 -30.0	 30.0;
	9053	 9533	 0.0	 0.75	 0.0	 40	 40	 40	 0.9583	 0.0	 1	 -30.0	 30.0;
	1	 5	 0.001	 0.006	 0.0	 4823	 4823	 4823	 0.0	 0.0	 1	 -30.0	 30.0;
	2	 6	 0.001	 0.009	 0.0	 3240	 3240	 3240	 0.0	 0.0	 1	 -30.0	 30.0;
	2	 8	 0.006	 0.027	 0.054	 1061	 1061	 1061	 0.0	 0.0	 1	 -30.0	 30.0;
	3	 7	 0.0	 0.003	 0.0	 9778	 9778	 9778	 0.0	 0.0	 1	 -30.0	 30.0;
	3	 19	 0.008	 0.069	 0.139	 423	 423	 423	 0.0	 0.0	 1	 -30.0	 30.0;
	3	 150	 0.001	 0.007	 0.0	 4149	 4149	 4149	 0.0	 0.0	 1	 -30.0	 30.0;
	4	 16	 0.002	 0.019	 1.127	 1536	 1536	 1536	 0.0	 0.0	 1	 -30.0	 30.0;
	5	 9	 0.006	 0.029	 0.018	 991	 991	 991	 0.0	 0.0	 1	 -30.0	 30.0;
	7	 12	 0.001	 0.009	 0.07	 3240	 3240	 3240	 0.0	 0.0	 1	 -30.0	 30.0;
	7	 131	 0.001	 0.007	 0.014	 4149	 4149	 4149	 0.0	 0.0	 1	 -30.0	 30.0;
	8	 11	 0.013	 0.0595	 0.033	 482	 482	 482	 0.0	 0.0	 1	 -30.0	 30.0;
	8	 14	 0.013	 0.042	 0.081	 668	 668	 668	 0.0	 0.0	 1	 -30.0	 30.0;
	9	 11	 0.006	 0.027	 0.013	 1061	 1061	 1061	 0.0	 0.0	 1	 -30.0	 30.0;
	11	 13	 0.008	 0.034	 0.018	 840	 840	 840	 0.0	 0.0	 1	 -30.0	 30.0;
	12	 21	 0.002	 0.015	 0.118	 1939	 1939	 1939	 0.0	 0.0	 1	 -30.0	 30.0;
	13	 20	 0.006	 0.034	 0.016	 850	 850	 850	 0.0	 0.0	 1	 -30.0	 30.0;
	14	 15	 0.014	 0.042	 0.097	 663	 663	 663	 0.0	 0.0	 1	 -30.0	 30.0;
	15	 37	 0.065	 0.248	 0.121	 115	 115	 115	 0.0	 0.0	 1	 -30.0	 30.0;
	15	 89	 0.099	 0.248	 0.035	 110	 110	 110	 0.0	 0.0	 1	 -30.0	 30.0;
	15	 90	 0.096	 0.363	 0.048	 79	 79	 79	 0.0	 0.0	 1	 -30.0	 30.0;
	16	 42	 0.002	 0.022	 1.28	 1328	 1328	 1328	 0.0	 0.0	 1	 -30.0	 30.0;
	19	 21	 0.002	 0.018	 0.036	 1620	 1620	 1620	 0.0	 0.0	 1	 -30.0	 30.0;
	19	 87	 0.013	 0.08	 0.151	 362	 362	 362	 0.0	 0.0	 1	 -30.0	 30.0;
	20	 22	 0.016	 0.033	 0.015	 800	 800	 800	 0.0	 0.0	 1	 -30.0	 30.0;
	20	 27	 0.069	 0.186	 0.098	 148	 148	 148	 0.0	 0.0	 1	 -30.0	 30.0;
	21	 24	 0.004	 0.034	 0.28	 857	 857	 857	 0.0	 0.0	 1	 -30.0	 30.0;
	22	 23	 0.052	 0.111	 0.05	 240	 240	 240	 0.0	 0.0	 1	 -30.0	 30.0;
	23	 25	 0.019	 0.039	 0.018	 677	 677	 677	 0.0	 0.0	 1	 -30.0	 30.0;
	24	 319	 0.007	 0.068	 0.134	 430	 430	 430	 0.0	 0.0	 1	 -30.0	 30.0;
	25	 26	 0.036	 0.071	 0.034	 369	 369	 369	 0.0	 0.0	 1	 -30.0	 30.0;
	26	 27	 0.045	 0.12	 0.065	 229	 229	 229	 0.0	 0.0	 1	 -30.0	 30.0;
	26	 320	 0.043	 0.13	 0.014	 215	 215	 215	 0.0	 0.0	 1	 -30.0	 30.0;
	33	 34	 0.0	 0.063	 0.0	 466	 466	 466	 0.0	 0.0	 1	 -30.0	 30.0;
	33	 38	 0.0025	 0.012	 0.013	 2393	 2393	 2393	 0.0	 0.0	 1	 -30.0	 30.0;
	33	 40	 0.006	 0.029	 0.02	 991	 991	 991	 0.0	 0.0	 1	 -30.0	 30.0;
	33	 41	 0.007	 0.043	 0.026	 674	 674	 674	 0.0	 0.0	 1	 -30.0	 30.0;
	34	 42	 0.001	 0.008	 0.042	 3639	 3639	 3639	 0.0	 0.0	 1	 -30.0	 30.0;
	35	 72	 0.012	 0.06	 0.008	 480	 480	 480	 0.0	 0.0	 1	 -30.0	 30.0;
	35	 76	 0.006	 0.014	 0.002	 1926	 1926	 1926	 0.0	 0.0	 1	 -30.0	 30.0;
	35	 77	 0.01	 0.029	 0.003	 957	 957	 957	 0.0	 0.0	 1	 -30.0	 30.0;
	36	 88	 0.004	 0.027	 0.043	 1075	 1075	 1075	 0.0	 0.0	 1	 -30.0	 30.0;
	37	 38	 0.008	 0.047	 0.008	 616	 616	 616	 0.0	 0.0	 1	 -30.0	 30.0;
	37	 40	 0.022	 0.064	 0.007	 434	 434	 434	 0.0	 0.0	 1	 -30.0	 30.0;
	37	 41	 0.01	 0.036	 0.02	 786	 786	 786	 0.0	 0.0	 1	 -30.0	 30.0;
	37	 49	 0.017	 0.081	 0.048	 355	 355	 355	 0.0	 0.0	 1	 -30.0	 30.0;
	37	 89	 0.102	 0.254	 0.033	 108	 108	 108	 0.0	 0.0	 1	 -30.0	 30.0;
	37	 90	 0.047	 0.127	 0.016	 217	 217	 217	 0.0	 0.0	 1	 -30.0	 30.0;
	38	 41	 0.008	 0.037	 0.02	 775	 775	 775	 0.0	 0.0	 1	 -30.0	 30.0;
	38	 43	 0.032	 0.087	 0.04	 317	 317	 317	 0.0	 0.0	 1	 -30.0	 30.0;
	39	 42	 0.0006	 0.0064	 0.404	 4564	 4564	 4564	 0.0	 0.0	 1	 -30.0	 30.0;
	40	 48	 0.026	 0.154	 0.022	 188	 188	 188	 0.0	 0.0	 1	 -30.0	 30.0;
	41	 42	 0.0	 0.029	 0.0	 1012	 1012	 1012	 0.0	 0.0	 1	 -30.0	 30.0;
	41	 49	 0.065	 0.191	 0.02	 146	 146	 146	 0.0	 0.0	 1	 -30.0	 30.0;
	41	 51	 0.031	 0.089	 0.036	 312	 312	 312	 0.0	 0.0	 1	 -30.0	 30.0;
	42	 46	 0.002	 0.014	 0.806	 2075	 2075	 2075	 0.0	 0.0	 1	 -30.0	 30.0;
	43	 44	 0.026	 0.072	 0.035	 384	 384	 384	 0.0	 0.0	 1	 -30.0	 30.0;
	43	 48	 0.095	 0.262	 0.032	 106	 106	 106	 0.0	 0.0	 1	 -30.0	 30.0;
	43	 53	 0.013	 0.039	 0.016	 714	 714	 714	 0.0	 0.0	 1	 -30.0	 30.0;
	44	 47	 0.027	 0.084	 0.039	 333	 333	 333	 0.0	 0.0	 1	 -30.0	 30.0;
	44	 54	 0.028	 0.084	 0.037	 332	 332	 332	 0.0	 0.0	 1	 -30.0	 30.0;
	45	 60	 0.007	 0.041	 0.312	 706	 706	 706	 0.0	 0.0	 1	 -30.0	 30.0;
	45	 74	 0.009	 0.054	 0.411	 536	 536	 536	 0.0	 0.0	 1	 -30.0	 30.0;
	46	 81	 0.005	 0.042	 0.69	 694	 694	 694	 0.0	 0.0	 1	 -30.0	 30.0;
	47	 73	 0.052	 0.145	 0.073	 191	 191	 191	 0.0	 0.0	 1	 -30.0	 30.0;
	47	 113	 0.043	 0.118	 0.013	 234	 234	 234	 0.0	 0.0	 1	 -30.0	 30.0;
	48	 107	 0.025	 0.062	 0.007	 439	 439	 439	 0.0	 0.0	 1	 -30.0	 30.0;
	49	 51	 0.031	 0.094	 0.043	 297	 297	 297	 0.0	 0.0	 1	 -30.0	 30.0;
	51	 52	 0.037	 0.109	 0.049	 255	 255	 255	 0.0	 0.0	 1	 -30.0	 30.0;
	52	 55	 0.027	 0.08	 0.036	 348	 348	 348	 0.0	 0.0	 1	 -30.0	 30.0;
	53	 54	 0.025	 0.073	 0.035	 381	 381	 381	 0.0	 0.0	 1	 -30.0	 30.0;
	54	 55	 0.035	 0.103	 0.047	 270	 270	 270	 0.0	 0.0	 1	 -30.0	 30.0;
	55	 57	 0.065	 0.169	 0.082	 162	 162	 162	 0.0	 0.0	 1	 -30.0	 30.0;
	57	 58	 0.046	 0.08	 0.036	 318	 318	 318	 0.0	 0.0	 1	 -30.0	 30.0;
	57	 63	 0.159	 0.537	 0.071	 53	 53	 53	 0.0	 0.0	 1	 -30.0	 30.0;
	58	 59	 0.009	 0.026	 0.005	 1067	 1067	 1067	 0.0	 0.0	 1	 -30.0	 30.0;
	59	 61	 0.002	 0.013	 0.015	 2231	 2231	 2231	 0.0	 0.0	 1	 -30.0	 30.0;
	60	 62	 0.009	 0.065	 0.485	 447	 447	 447	 0.0	 0.0	 1	 -30.0	 30.0;
	62	 64	 0.016	 0.105	 0.203	 277	 277	 277	 0.0	 0.0	 1	 -30.0	 30.0;
	62	 144	 0.001	 0.007	 0.013	 4149	 4149	 4149	 0.0	 0.0	 1	 -30.0	 30.0;
	63	 526	 0.0265	 0.172	 0.026	 169	 169	 169	 0.0	 0.0	 1	 -30.0	 30.0;
	69	 211	 0.051	 0.232	 0.028	 124	 124	 124	 0.0	 0.0	 1	 -30.0	 30.0;
	69	 79	 0.051	 0.157	 0.023	 178	 178	 178	 0.0	 0.0	 1	 -30.0	 30.0;
	70	 71	 0.032	 0.1	 0.062	 280	 280	 280	 0.0	 0.0	 1	 -30.0	 30.0;
	70	 528	 0.02	 0.1234	 0.028	 235	 235	 235	 0.0	 0.0	 1	 -30.0	 30.0;
	71	 72	 0.036	 0.131	 0.068	 216	 216	 216	 0.0	 0.0	 1	 -30.0	 30.0;
	71	 73	 0.034	 0.099	 0.047	 281	 281	 281	 0.0	 0.0	 1	 -30.0	 30.0;
	72	 77	 0.018	 0.087	 0.011	 331	 331	 331	 0.0	 0.0	 1	 -30.0	 30.0;
	72	 531	 0.0256	 0.193	 0.0	 151	 151	 151	 0.0	 0.0	 1	 -30.0	 30.0;
	73	 76	 0.021	 0.057	 0.03	 483	 483	 483	 0.0	 0.0	 1	 -30.0	 30.0;
	73	 79	 0.018	 0.052	 0.018	 534	 534	 534	 0.0	 0.0	 1	 -30.0	 30.0;
	74	 88	 0.004	 0.027	 0.05	 1075	 1075	 1075	 0.0	 0.0	 1	 -30.0	 30.0;
	74	 562	 0.0286	 0.2013	 0.379	 145	 145	 145	 0.0	 0.0	 1	 -30.0	 30.0;
	76	 77	 0.016	 0.043	 0.004	 640	 640	 640	 0.0	 0.0	 1	 -30.0	 30.0;
	77	 78	 0.001	 0.006	 0.007	 4823	 4823	 4823	 0.0	 0.0	 1	 -30.0	 30.0;
	77	 80	 0.014	 0.07	 0.038	 411	 411	 411	 0.0	 0.0	 1	 -30.0	 30.0;
	77	 552	 0.0891	 0.2676	 0.029	 104	 104	 104	 0.0	 0.0	 1	 -30.0	 30.0;
	77	 609	 0.0782	 0.2127	 0.022	 130	 130	 130	 0.0	 0.0	 1	 -30.0	 30.0;
	78	 79	 0.006	 0.022	 0.011	 1287	 1287	 1287	 0.0	 0.0	 1	 -30.0	 30.0;
	78	 84	 0.0	 0.036	 0.0	 815	 815	 815	 0.0	 0.0	 1	 -30.0	 30.0;
	79	 211	 0.099	 0.375	 0.051	 76	 76	 76	 0.0	 0.0	 1	 -30.0	 30.0;
	80	 211	 0.022	 0.107	 0.058	 269	 269	 269	 0.0	 0.0	 1	 -30.0	 30.0;
	81	 194	 0.0035	 0.033	 0.53	 884	 884	 884	 0.0	 0.0	 1	 -30.0	 30.0;
	81	 195	 0.0035	 0.033	 0.53	 884	 884	 884	 0.0	 0.0	 1	 -30.0	 30.0;
	85	 86	 0.008	 0.064	 0.128	 455	 455	 455	 0.0	 0.0	 1	 -30.0	 30.0;
	86	 87	 0.012	 0.093	 0.183	 313	 313	 313	 0.0	 0.0	 1	 -30.0	 30.0;
	86	 323	 0.006	 0.048	 0.092	 607	 607	 607	 0.0	 0.0	 1	 -30.0	 30.0;
	89	 91	 0.047	 0.119	 0.014	 230	 230	 230	 0.0	 0.0	 1	 -30.0	 30.0;
	90	 92	 0.032	 0.174	 0.024	 166	 166	 166	 0.0	 0.0	 1	 -30.0	 30.0;
	91	 94	 0.1	 0.253	 0.031	 108	 108	 108	 0.0	 0.0	 1	 -30.0	 30.0;
	91	 97	 0.022	 0.077	 0.039	 367	 367	 367	 0.0	 0.0	 1	 -30.0	 30.0;
	92	 103	 0.019	 0.144	 0.017	 202	 202	 202	 0.0	 0.0	 1	 -30.0	 30.0;
	92	 105	 0.017	 0.092	 0.012	 314	 314	 314	 0.0	 0.0	 1	 -30.0	 30.0;
	94	 97	 0.278	 0.427	 0.043	 58	 58	 58	 0.0	 0.0	 1	 -30.0	 30.0;
	97	 100	 0.022	 0.053	 0.007	 512	 512	 512	 0.0	 0.0	 1	 -30.0	 30.0;
	97	 102	 0.038	 0.092	 0.012	 295	 295	 295	 0.0	 0.0	 1	 -30.0	 30.0;
	97	 103	 0.048	 0.122	 0.015	 224	 224	 224	 0.0	 0.0	 1	 -30.0	 30.0;
	98	 100	 0.024	 0.064	 0.007	 430	 430	 430	 0.0	 0.0	 1	 -30.0	 30.0;
	98	 102	 0.034	 0.121	 0.015	 234	 234	 234	 0.0	 0.0	 1	 -30.0	 30.0;
	99	 107	 0.053	 0.135	 0.017	 203	 203	 203	 0.0	 0.0	 1	 -30.0	 30.0;
	99	 108	 0.002	 0.004	 0.002	 6559	 6559	 6559	 0.0	 0.0	 1	 -30.0	 30.0;
	99	 109	 0.045	 0.354	 0.044	 83	 83	 83	 0.0	 0.0	 1	 -30.0	 30.0;
	99	 110	 0.05	 0.174	 0.022	 163	 163	 163	 0.0	 0.0	 1	 -30.0	 30.0;
	100	 102	 0.016	 0.038	 0.004	 712	 712	 712	 0.0	 0.0	 1	 -30.0	 30.0;
	102	 104	 0.043	 0.064	 0.027	 381	 381	 381	 0.0	 0.0	 1	 -30.0	 30.0;
	103	 105	 0.019	 0.062	 0.008	 453	 453	 453	 0.0	 0.0	 1	 -30.0	 30.0;
	104	 108	 0.076	 0.13	 0.044	 195	 195	 195	 0.0	 0.0	 1	 -30.0	 30.0;
	104	 322	 0.044	 0.124	 0.015	 223	 223	 223	 0.0	 0.0	 1	 -30.0	 30.0;
	105	 107	 0.012	 0.088	 0.011	 331	 331	 331	 0.0	 0.0	 1	 -30.0	 30.0;
	105	 110	 0.157	 0.4	 0.047	 69	 69	 69	 0.0	 0.0	 1	 -30.0	 30.0;
	108	 324	 0.074	 0.208	 0.026	 133	 133	 133	 0.0	 0.0	 1	 -30.0	 30.0;
	109	 110	 0.07	 0.184	 0.021	 149	 149	 149	 0.0	 0.0	 1	 -30.0	 30.0;
	109	 113	 0.1	 0.274	 0.031	 101	 101	 101	 0.0	 0.0	 1	 -30.0	 30.0;
	109	 114	 0.109	 0.393	 0.036	 72	 72	 72	 0.0	 0.0	 1	 -30.0	 30.0;
	110	 112	 0.142	 0.404	 0.05	 69	 69	 69	 0.0	 0.0	 1	 -30.0	 30.0;
	112	 114	 0.017	 0.042	 0.006	 648	 648	 648	 0.0	 0.0	 1	 -30.0	 30.0;
	115	 122	 0.0036	 0.0199	 0.004	 1451	 1451	 1451	 0.0	 0.0	 1	 -30.0	 30.0;
	116	 120	 0.002	 0.1049	 0.001	 280	 280	 280	 0.0	 0.0	 1	 -30.0	 30.0;
	117	 118	 0.0001	 0.0018	 0.017	 9900.0	 16271	 16271	 0.0	 0.0	 1	 -30.0	 30.0;
	118	 119	 0.0	 0.0271	 0.0	 1083	 1083	 1083	 0.0	 0.0	 1	 -30.0	 30.0;
	118	 1201	 0.0	 0.6163	 0.0	 48	 48	 48	 0.0	 0.0	 1	 -30.0	 30.0;
	1201	 120	 0.0	 -0.3697	 0.0	 80	 80	 80	 0.0	 0.0	 1	 -30.0	 30.0;
	118	 121	 0.0022	 0.2915	 0.0	 101	 101	 101	 0.0	 0.0	 1	 -30.0	 30.0;
	119	 120	 0.0	 0.0339	 0.0	 866	 866	 866	 0.0	 0.0	 1	 -30.0	 30.0;
	119	 121	 0.0	 0.0582	 0.0	 504	 504	 504	 0.0	 0.0	 1	 -30.0	 30.0;
	122	 123	 0.0808	 0.2344	 0.029	 119	 119	 119	 0.0	 0.0	 1	 -30.0	 30.0;
	122	 125	 0.0965	 0.3669	 0.054	 78	 78	 78	 0.0	 0.0	 1	 -30.0	 30.0;
	123	 124	 0.036	 0.1076	 0.117	 259	 259	 259	 0.0	 0.0	 1	 -30.0	 30.0;
	123	 125	 0.0476	 0.1414	 0.149	 197	 197	 197	 0.0	 0.0	 1	 -30.0	 30.0;
	125	 126	 0.0006	 0.0197	 0.0	 1489	 1489	 1489	 0.0	 0.0	 1	 -30.0	 30.0;
	126	 127	 0.0059	 0.0405	 0.25	 717	 717	 717	 0.0	 0.0	 1	 -30.0	 30.0;
	126	 129	 0.0115	 0.1106	 0.185	 264	 264	 264	 0.0	 0.0	 1	 -30.0	 30.0;
	126	 132	 0.0198	 0.1688	 0.321	 173	 173	 173	 0.0	 0.0	 1	 -30.0	 30.0;
	126	 157	 0.005	 0.05	 0.33	 584	 584	 584	 0.0	 0.0	 1	 -30.0	 30.0;
	126	 158	 0.0077	 0.0538	 0.335	 540	 540	 540	 0.0	 0.0	 1	 -30.0	 30.0;
	126	 169	 0.0165	 0.1157	 0.171	 251	 251	 251	 0.0	 0.0	 1	 -30.0	 30.0;
	127	 128	 0.0059	 0.0577	 0.095	 506	 506	 506	 0.0	 0.0	 1	 -30.0	 30.0;
	127	 134	 0.0049	 0.0336	 0.208	 864	 864	 864	 0.0	 0.0	 1	 -30.0	 30.0;
	127	 168	 0.0059	 0.0577	 0.095	 506	 506	 506	 0.0	 0.0	 1	 -30.0	 30.0;
	128	 130	 0.0078	 0.0773	 0.126	 378	 378	 378	 0.0	 0.0	 1	 -30.0	 30.0;
	128	 133	 0.0026	 0.0193	 0.03	 1507	 1507	 1507	 0.0	 0.0	 1	 -30.0	 30.0;
	129	 130	 0.0076	 0.0752	 0.122	 389	 389	 389	 0.0	 0.0	 1	 -30.0	 30.0;
	129	 133	 0.0021	 0.0186	 0.03	 1568	 1568	 1568	 0.0	 0.0	 1	 -30.0	 30.0;
...
];

% INFO    : === Translation Options ===
% INFO    : Phase Angle Bound:           30.0 (deg.)
% INFO    : Line Capacity Model:         ub
% INFO    : Gen Active Capacity Model:   stat
% INFO    : Gen Reactive Capacity Model: am50ag
% INFO    : Gen Active Cost Model:       stat
% INFO    : AC OPF Solution File:        nesta_case300_ieee.m.opf.sol
% INFO    : Line Capacity PAB:           15.0 (deg.)
% WARNING : No active generation at the slack bus, assigning type - NUC
% INFO    : 
% INFO    : === Generator Classification Notes ===
% INFO    : PEL    2   -     2.21
% INFO    : NUC    3   -    13.91
% INFO    : SYNC   12  -     0.00
% INFO    : COW    20  -    52.09
% INFO    : NG     32  -    31.79
% INFO    : 
% INFO    : === Generator Active Capacity Stat Model Notes ===
% INFO    : Gen at bus 8 - SYNC	: Pg=0.0, Pmax=100.0 -> Pmax=0   samples: 0
% INFO    : Gen at bus 10 - SYNC	: Pg=0.0, Pmax=100.0 -> Pmax=0   samples: 0
% INFO    : Gen at bus 20 - SYNC	: Pg=0.0, Pmax=100.0 -> Pmax=0   samples: 0
% INFO    : Gen at bus 63 - SYNC	: Pg=0.0, Pmax=100.0 -> Pmax=0   samples: 0
% INFO    : Gen at bus 76 - SYNC	: Pg=0.0, Pmax=100.0 -> Pmax=0   samples: 0
% WARNING : Failed to find a generator capacity within (375.0-1875.0) after 100 samples, using percent increase model
% INFO    : Gen at bus 84 - NG	: Pg=375.0, Pmax=475.0 -> Pmax=423   samples: 100
% INFO    : Gen at bus 91 - NG	: Pg=155.0, Pmax=255.0 -> Pmax=182   samples: 3
% INFO    : Gen at bus 92 - NG	: Pg=290.0, Pmax=390.0 -> Pmax=313   samples: 20
% INFO    : Gen at bus 98 - COW	: Pg=68.0, Pmax=168.0 -> Pmax=315   samples: 1
% INFO    : Gen at bus 108 - COW	: Pg=117.0, Pmax=217.0 -> Pmax=327   samples: 2
% INFO    : Gen at bus 119 - COW	: Pg=1930.0, Pmax=2030.0 -> Pmax=1969   samples: 64
% INFO    : Gen at bus 124 - NG	: Pg=240.0, Pmax=340.0 -> Pmax=364   samples: 5
% INFO    : Gen at bus 125 - SYNC	: Pg=0.0, Pmax=100.0 -> Pmax=0   samples: 0
% INFO    : Gen at bus 138 - SYNC	: Pg=0.0, Pmax=100.0 -> Pmax=0   samples: 0
% INFO    : Gen at bus 141 - COW	: Pg=281.0, Pmax=381.0 -> Pmax=322   samples: 1
% INFO    : Gen at bus 143 - COW	: Pg=696.0, Pmax=796.0 -> Pmax=1090   samples: 10
% INFO    : Gen at bus 146 - NG	: Pg=84.0, Pmax=184.0 -> Pmax=184   samples: 1
% INFO    : Gen at bus 147 - NG	: Pg=217.0, Pmax=317.0 -> Pmax=237   samples: 3
% INFO    : Gen at bus 149 - NG	: Pg=103.0, Pmax=203.0 -> Pmax=179   samples: 8
% INFO    : Gen at bus 152 - NG	: Pg=372.0, Pmax=472.0 -> Pmax=389   samples: 13
% INFO    : Gen at bus 153 - NG	: Pg=216.0, Pmax=316.0 -> Pmax=330   samples: 1
% INFO    : Gen at bus 156 - SYNC	: Pg=0.0, Pmax=100.0 -> Pmax=0   samples: 0
% INFO    : Gen at bus 170 - NG	: Pg=205.0, Pmax=305.0 -> Pmax=542   samples: 11
% INFO    : Gen at bus 171 - SYNC	: Pg=0.0, Pmax=100.0 -> Pmax=0   samples: 0
% INFO    : Gen at bus 176 - NG	: Pg=228.0, Pmax=328.0 -> Pmax=400   samples: 11
% INFO    : Gen at bus 177 - NG	: Pg=84.0, Pmax=184.0 -> Pmax=270   samples: 1
% INFO    : Gen at bus 185 - NG	: Pg=200.0, Pmax=300.0 -> Pmax=432   samples: 15
% WARNING : Failed to find a generator capacity within (1200.0-6000.0) after 100 samples, using percent increase model
% INFO    : Gen at bus 186 - COW	: Pg=1200.0, Pmax=1300.0 -> Pmax=1301   samples: 100
% INFO    : Gen at bus 187 - COW	: Pg=1200.0, Pmax=1300.0 -> Pmax=1424   samples: 40
% WARNING : Failed to find a generator capacity within (475.0-2375.0) after 100 samples, using percent increase model
% INFO    : Gen at bus 190 - PEL	: Pg=475.0, Pmax=575.0 -> Pmax=551   samples: 100
% WARNING : Failed to find a generator capacity within (1973.0-9865.0) after 100 samples, using percent increase model
% INFO    : Gen at bus 191 - NUC	: Pg=1973.0, Pmax=2073.0 -> Pmax=2087   samples: 100
% INFO    : Gen at bus 198 - NG	: Pg=424.0, Pmax=524.0 -> Pmax=457   samples: 5
% INFO    : Gen at bus 213 - COW	: Pg=272.0, Pmax=372.0 -> Pmax=440   samples: 1
% INFO    : Gen at bus 220 - NG	: Pg=100.0, Pmax=200.0 -> Pmax=313   samples: 4
% INFO    : Gen at bus 221 - COW	: Pg=450.0, Pmax=550.0 -> Pmax=566   samples: 2
% INFO    : Gen at bus 222 - NG	: Pg=250.0, Pmax=350.0 -> Pmax=292   samples: 39
% INFO    : Gen at bus 227 - NG	: Pg=303.0, Pmax=403.0 -> Pmax=400   samples: 1
% INFO    : Gen at bus 230 - NG	: Pg=345.0, Pmax=445.0 -> Pmax=457   samples: 14
% INFO    : Gen at bus 233 - COW	: Pg=300.0, Pmax=400.0 -> Pmax=1259   samples: 3
% INFO    : Gen at bus 236 - COW	: Pg=600.0, Pmax=700.0 -> Pmax=603   samples: 20
% INFO    : Gen at bus 238 - NG	: Pg=250.0, Pmax=350.0 -> Pmax=281   samples: 4
% INFO    : Gen at bus 239 - NG	: Pg=550.0, Pmax=650.0 -> Pmax=656   samples: 1
% INFO    : Gen at bus 241 - COW	: Pg=575.43, Pmax=675.43 -> Pmax=594   samples: 7
% INFO    : Gen at bus 242 - NG	: Pg=170.0, Pmax=270.0 -> Pmax=293   samples: 14
% INFO    : Gen at bus 243 - NG	: Pg=84.0, Pmax=184.0 -> Pmax=98   samples: 4
% INFO    : Gen at bus 7001 - COW	: Pg=467.0, Pmax=567.0 -> Pmax=1084   samples: 2
% INFO    : Gen at bus 7002 - COW	: Pg=623.0, Pmax=723.0 -> Pmax=814   samples: 3
% INFO    : Gen at bus 7003 - COW	: Pg=1210.0, Pmax=1310.0 -> Pmax=1798   samples: 8
% INFO    : Gen at bus 7011 - NG	: Pg=234.0, Pmax=334.0 -> Pmax=338   samples: 9
% INFO    : Gen at bus 7012 - COW	: Pg=372.0, Pmax=472.0 -> Pmax=382   samples: 2
% INFO    : Gen at bus 7017 - NG	: Pg=330.0, Pmax=430.0 -> Pmax=461   samples: 8
% INFO    : Gen at bus 7023 - NG	: Pg=185.0, Pmax=285.0 -> Pmax=202   samples: 1
% INFO    : Gen at bus 7024 - NG	: Pg=410.0, Pmax=510.0 -> Pmax=503   samples: 33
% INFO    : Gen at bus 7039 - COW	: Pg=500.0, Pmax=600.0 -> Pmax=534   samples: 4
% INFO    : Gen at bus 7044 - NG	: Pg=37.0, Pmax=137.0 -> Pmax=43   samples: 1
% INFO    : Gen at bus 7049 - NUC	: Pg=0.0, Pmax=2399.01 -> Pmax=1366   samples: 1
% INFO    : Gen at bus 7055 - PEL	: Pg=45.0, Pmax=145.0 -> Pmax=63   samples: 3
% INFO    : Gen at bus 7057 - NG	: Pg=165.0, Pmax=265.0 -> Pmax=167   samples: 1
% WARNING : Failed to find a generator capacity within (400.0-2000.0) after 100 samples, using percent increase model
% INFO    : Gen at bus 7061 - NG	: Pg=400.0, Pmax=500.0 -> Pmax=451   samples: 100
% INFO    : Gen at bus 7062 - NG	: Pg=400.0, Pmax=500.0 -> Pmax=583   samples: 7
% INFO    : Gen at bus 7071 - COW	: Pg=116.0, Pmax=216.0 -> Pmax=308   samples: 1
% INFO    : Gen at bus 7130 - NUC	: Pg=1292.0, Pmax=1392.0 -> Pmax=1354   samples: 3
% INFO    : Gen at bus 7139 - COW	: Pg=700.0, Pmax=800.0 -> Pmax=946   samples: 6
% INFO    : Gen at bus 7166 - COW	: Pg=553.0, Pmax=653.0 -> Pmax=559   samples: 3
% INFO    : Gen at bus 9002 - SYNC	: Pg=0.0, Pmax=100.0 -> Pmax=0   samples: 0
% INFO    : Gen at bus 9051 - SYNC	: Pg=0.0, Pmax=100.0 -> Pmax=0   samples: 0
% INFO    : Gen at bus 9053 - SYNC	: Pg=0.0, Pmax=100.0 -> Pmax=0   samples: 0
% INFO    : Gen at bus 9054 - NG	: Pg=50.0, Pmax=150.0 -> Pmax=174   samples: 1
% INFO    : Gen at bus 9055 - NG	: Pg=8.0, Pmax=108.0 -> Pmax=22   samples: 1
% INFO    : 
% INFO    : === Generator Reactive Capacity Atmost Max 50 Percent Active Model Notes ===
% INFO    : Gen at bus 84 - NG	: Pmax 423.0, Qmin -240.0, Qmax 240.0 -> Qmin -212.0, Qmax 212.0
% INFO    : Gen at bus 91 - NG	: Pmax 182.0, Qmin -11.0, Qmax 96.0 -> Qmin -11.0, Qmax 91.0
% INFO    : Gen at bus 119 - COW	: Pmax 1969.0, Qmin -500.0, Qmax 1500.0 -> Qmin -500.0, Qmax 985.0
% INFO    : Gen at bus 190 - PEL	: Pmax 551.0, Qmin -300.0, Qmax 300.0 -> Qmin -276.0, Qmax 276.0
% INFO    : Gen at bus 198 - NG	: Pmax 457.0, Qmin -260.0, Qmax 260.0 -> Qmin -229.0, Qmax 229.0
% INFO    : Gen at bus 221 - COW	: Pmax 566.0, Qmin -320.0, Qmax 320.0 -> Qmin -283.0, Qmax 283.0
% INFO    : Gen at bus 222 - NG	: Pmax 292.0, Qmin -300.0, Qmax 300.0 -> Qmin -146.0, Qmax 146.0
% INFO    : Gen at bus 227 - NG	: Pmax 400.0, Qmin -300.0, Qmax 300.0 -> Qmin -200.0, Qmax 200.0
% INFO    : Gen at bus 230 - NG	: Pmax 457.0, Qmin -250.0, Qmax 250.0 -> Qmin -229.0, Qmax 229.0
% INFO    : Gen at bus 238 - NG	: Pmax 281.0, Qmin -200.0, Qmax 200.0 -> Qmin -141.0, Qmax 141.0
% INFO    : Gen at bus 239 - NG	: Pmax 656.0, Qmin -400.0, Qmax 400.0 -> Qmin -328.0, Qmax 328.0
% INFO    : Gen at bus 241 - COW	: Pmax 594.0, Qmin -600.0, Qmax 600.0 -> Qmin -297.0, Qmax 297.0
% INFO    : Gen at bus 243 - NG	: Pmax 98.0, Qmin 40.0, Qmax 80.0 -> Qmin 40.0, Qmax 49.0
% INFO    : Gen at bus 7012 - COW	: Pmax 382.0, Qmin -224.0, Qmax 224.0 -> Qmin -191.0, Qmax 191.0
% INFO    : Gen at bus 7017 - NG	: Pmax 461.0, Qmin 0.0, Qmax 350.0 -> Qmin 0.0, Qmax 231.0
% INFO    : Gen at bus 7023 - NG	: Pmax 202.0, Qmin 0.0, Qmax 120.0 -> Qmin 0.0, Qmax 101.0
% INFO    : Gen at bus 7044 - NG	: Pmax 43.0, Qmin 0.0, Qmax 42.0 -> Qmin 0.0, Qmax 22.0
% INFO    : Gen at bus 7057 - NG	: Pmax 167.0, Qmin -90.0, Qmax 90.0 -> Qmin -84.0, Qmax 84.0
% INFO    : Gen at bus 7166 - COW	: Pmax 559.0, Qmin -200.0, Qmax 300.0 -> Qmin -200.0, Qmax 280.0
% INFO    : 
% INFO    : === Generator Active Cost Stat Model Notes ===
% INFO    : Updated Generator Cost: SYNC - 0.0 40.0 0.01 -> 0 0.0 0
% INFO    : Updated Generator Cost: SYNC - 0.0 40.0 0.01 -> 0 0.0 0
% INFO    : Updated Generator Cost: SYNC - 0.0 40.0 0.01 -> 0 0.0 0
% INFO    : Updated Generator Cost: SYNC - 0.0 40.0 0.01 -> 0 0.0 0
% INFO    : Updated Generator Cost: SYNC - 0.0 40.0 0.01 -> 0 0.0 0
% INFO    : Updated Generator Cost: NG - 0.0 20.0 0.0266667 -> 0 0.862936937831 0
% INFO    : Updated Generator Cost: NG - 0.0 20.0 0.0645161 -> 0 1.14521924862 0
% INFO    : Updated Generator Cost: NG - 0.0 20.0 0.0344828 -> 0 0.855144443151 0
% INFO    : Updated Generator Cost: COW - 0.0 20.0 0.147059 -> 0 0.623183913408 0
% INFO    : Updated Generator Cost: COW - 0.0 20.0 0.0854701 -> 0 0.436941632564 0
% INFO    : Updated Generator Cost: COW - 0.0 20.0 0.00518135 -> 0 0.860738649274 0
% INFO    : Updated Generator Cost: NG - 0.0 20.0 0.0416667 -> 0 1.16527717422 0
% INFO    : Updated Generator Cost: SYNC - 0.0 40.0 0.01 -> 0 0.0 0
% INFO    : Updated Generator Cost: SYNC - 0.0 40.0 0.01 -> 0 0.0 0
% INFO    : Updated Generator Cost: COW - 0.0 20.0 0.0355872 -> 0 0.736240387003 0
% INFO    : Updated Generator Cost: COW - 0.0 20.0 0.0143678 -> 0 0.518890126965 0
% INFO    : Updated Generator Cost: NG - 0.0 20.0 0.119048 -> 0 0.950469969656 0
% INFO    : Updated Generator Cost: NG - 0.0 20.0 0.0460829 -> 0 1.03544299015 0
% INFO    : Updated Generator Cost: NG - 0.0 20.0 0.0970874 -> 0 1.00086508104 0
% INFO    : Updated Generator Cost: NG - 0.0 20.0 0.0268817 -> 0 1.2050685846 0
% INFO    : Updated Generator Cost: NG - 0.0 20.0 0.0462963 -> 0 1.00600279344 0
% INFO    : Updated Generator Cost: SYNC - 0.0 40.0 0.01 -> 0 0.0 0
% INFO    : Updated Generator Cost: NG - 0.0 20.0 0.0487805 -> 0 1.29683021865 0
% INFO    : Updated Generator Cost: SYNC - 0.0 40.0 0.01 -> 0 0.0 0
% INFO    : Updated Generator Cost: NG - 0.0 20.0 0.0438596 -> 0 0.881520953623 0
% INFO    : Updated Generator Cost: NG - 0.0 20.0 0.119048 -> 0 1.07725849929 0
% INFO    : Updated Generator Cost: NG - 0.0 20.0 0.05 -> 0 0.881765830173 0
% INFO    : Updated Generator Cost: COW - 0.0 20.0 0.00833333 -> 0 0.680560589417 0
% INFO    : Updated Generator Cost: COW - 0.0 20.0 0.00833333 -> 0 0.525814724801 0
% INFO    : Updated Generator Cost: PEL - 0.0 20.0 0.0210526 -> 0 6.58982043715 0
% INFO    : Updated Generator Cost: NUC - 0.0 20.0 0.00506842 -> 0 0.238746447162 0
% INFO    : Updated Generator Cost: NG - 0.0 20.0 0.0235849 -> 0 1.29657737617 0
% INFO    : Updated Generator Cost: COW - 0.0 20.0 0.0367647 -> 0 0.766488184317 0
% INFO    : Updated Generator Cost: NG - 0.0 20.0 0.1 -> 0 1.18987238632 0
% INFO    : Updated Generator Cost: COW - 0.0 20.0 0.0222222 -> 0 0.793755135644 0
% INFO    : Updated Generator Cost: NG - 0.0 20.0 0.04 -> 0 1.15196791267 0
% INFO    : Updated Generator Cost: NG - 0.0 20.0 0.0330033 -> 0 0.967288818418 0
% INFO    : Updated Generator Cost: NG - 0.0 20.0 0.0289855 -> 0 1.35167825453 0
% INFO    : Updated Generator Cost: COW - 0.0 20.0 0.0333333 -> 0 1.09279598028 0
% INFO    : Updated Generator Cost: COW - 0.0 20.0 0.0166667 -> 0 0.717838234806 0
% INFO    : Updated Generator Cost: NG - 0.0 20.0 0.04 -> 0 0.81619553221 0
% INFO    : Updated Generator Cost: NG - 0.0 20.0 0.0181818 -> 0 0.829873100224 0
% INFO    : Updated Generator Cost: COW - 0.0 20.0 0.0173783 -> 0 0.965276508568 0
% INFO    : Updated Generator Cost: NG - 0.0 20.0 0.0588235 -> 0 1.026425974 0
% INFO    : Updated Generator Cost: NG - 0.0 20.0 0.119048 -> 0 1.16252241628 0
% INFO    : Updated Generator Cost: COW - 0.0 20.0 0.0214133 -> 0 0.464374642599 0
% INFO    : Updated Generator Cost: COW - 0.0 20.0 0.0160514 -> 0 0.643628895706 0
% INFO    : Updated Generator Cost: COW - 0.0 20.0 0.00826446 -> 0 0.979372985559 0
% INFO    : Updated Generator Cost: NG - 0.0 20.0 0.042735 -> 0 1.1017649785 0
% INFO    : Updated Generator Cost: COW - 0.0 20.0 0.0268817 -> 0 0.668354848387 0
% INFO    : Updated Generator Cost: NG - 0.0 20.0 0.030303 -> 0 0.96329783261 0
% INFO    : Updated Generator Cost: NG - 0.0 20.0 0.0540541 -> 0 0.910148392673 0
% INFO    : Updated Generator Cost: NG - 0.0 20.0 0.0243902 -> 0 1.07099133939 0
% INFO    : Updated Generator Cost: COW - 0.0 20.0 0.02 -> 0 0.440400756222 0
% INFO    : Updated Generator Cost: NG - 0.0 20.0 0.27027 -> 0 0.698679131186 0
% INFO    : Updated Generator Cost: NUC - 0.0 40.0 0.01 -> 0 0.220280062578 0
% INFO    : Updated Generator Cost: PEL - 0.0 20.0 0.222222 -> 0 6.63818098906 0
...